MODEL 1
REMARK VINA RESULT:      -8.9      0.000      0.000
REMARK  Name = 155812439
REMARK  9 active torsions:
REMARK  status: ('A' for Active; 'I' for Inactive)
REMARK    1  A    between atoms: O_3  and  C_10
REMARK    2  A    between atoms: O_3  and  C_11
REMARK    3  A    between atoms: N_4  and  C_9
REMARK    4  A    between atoms: C_9  and  C_10
REMARK    5  A    between atoms: C_12  and  C_13
REMARK    6  A    between atoms: C_12  and  C_20
REMARK    7  A    between atoms: C_14  and  C_17
REMARK    8  A    between atoms: C_14  and  C_21
REMARK    9  A    between atoms: C_17  and  C_22
REMARK                            x       y       z     vdW  Elec       q    Type
REMARK                         _______ _______ _______ _____ _____    ______ ____
ROOT
ATOM      1  C   UNL     1      37.787   0.133  17.841  0.00  0.00    -0.007 C 
ATOM      2  C   UNL     1      38.604  -0.416  17.667  0.00  0.00    -0.032 C 
ENDROOT
BRANCH   1   7
ATOM      3 CL   UNL     1      34.301  -1.664  18.625  0.00  0.00    -0.084 Cl
ATOM      4  C   UNL     1      35.172  -1.215  18.429  0.00  0.00    +0.041 A 
ATOM      5  C   UNL     1      35.419  -0.992  17.486  0.00  0.00    +0.020 A 
ATOM      6  C   UNL     1      36.291  -0.543  17.290  0.00  0.00    +0.010 A 
ATOM      7  C   UNL     1      36.916  -0.316  18.037  0.00  0.00    -0.017 A 
ATOM      8  C   UNL     1      36.669  -0.539  18.981  0.00  0.00    +0.010 A 
ATOM      9  C   UNL     1      35.797  -0.988  19.177  0.00  0.00    +0.020 A 
ENDBRANCH   1   7
BRANCH   2  10
ATOM     10  C   UNL     1      38.550  -1.414  17.688  0.00  0.00    -0.021 A 
ATOM     11  C   UNL     1      38.737  -1.907  18.538  0.00  0.00    +0.009 A 
ATOM     12  C   UNL     1      38.683  -2.906  18.559  0.00  0.00    +0.020 A 
ATOM     13  C   UNL     1      38.442  -3.411  17.730  0.00  0.00    +0.041 A 
ATOM     14  C   UNL     1      38.255  -2.918  16.881  0.00  0.00    +0.020 A 
ATOM     15 CL   UNL     1      38.387  -4.409  17.752  0.00  0.00    -0.084 Cl
ATOM     16  C   UNL     1      38.309  -1.920  16.859  0.00  0.00    +0.009 A 
ENDBRANCH   2  10
BRANCH   1  17
ATOM     17  C   UNL     1      37.841   1.131  17.820  0.00  0.00    -0.017 A 
ATOM     18  C   UNL     1      37.688   1.622  16.963  0.00  0.00    +0.012 A 
ATOM     19  C   UNL     1      37.742   2.621  16.941  0.00  0.00    +0.046 A 
ATOM     20  C   UNL     1      37.950   3.128  17.778  0.00  0.00    +0.121 A 
ATOM     21  C   UNL     1      38.104   2.637  18.635  0.00  0.00    +0.046 A 
ATOM     22  C   UNL     1      38.049   1.639  18.656  0.00  0.00    +0.012 A 
BRANCH  20  23
ATOM     23  O   UNL     1      38.004   4.126  17.756  0.00  0.00    -0.491 OA
BRANCH  23  24
ATOM     24  C   UNL     1      38.707   4.600  18.288  0.00  0.00    +0.244 C 
BRANCH  24  25
ATOM     25  C   UNL     1      38.760   5.599  18.268  0.00  0.00    +0.125 C 
BRANCH  25  26
ATOM     26  N   UNL     1      39.283   6.085  18.967  0.00  0.00    -0.299 NA
ATOM     27  C   UNL     1      40.212   5.867  19.264  0.00  0.00    +0.084 C 
ATOM     28  C   UNL     1      40.473   6.523  19.973  0.00  0.00    +0.017 C 
ATOM     29  C   UNL     1      39.704   7.146  20.114  0.00  0.00    +0.017 C 
ATOM     30  C   UNL     1      38.968   6.876  19.493  0.00  0.00    +0.084 C 
ENDBRANCH  25  26
ENDBRANCH  24  25
ENDBRANCH  23  24
ENDBRANCH  20  23
ENDBRANCH   1  17
BRANCH   2  31
ATOM     31  C   UNL     1      39.476   0.033  17.471  0.00  0.00    +0.033 C 
ATOM     32  C   UNL     1      39.992  -0.213  16.650  0.00  0.00    +0.009 C 
ENDBRANCH   2  31
TORSDOF 8
ENDMDL
MODEL 2
REMARK VINA RESULT:      -8.8      5.989      8.500
REMARK  Name = 155812439
REMARK  9 active torsions:
REMARK  status: ('A' for Active; 'I' for Inactive)
REMARK    1  A    between atoms: O_3  and  C_10
REMARK    2  A    between atoms: O_3  and  C_11
REMARK    3  A    between atoms: N_4  and  C_9
REMARK    4  A    between atoms: C_9  and  C_10
REMARK    5  A    between atoms: C_12  and  C_13
REMARK    6  A    between atoms: C_12  and  C_20
REMARK    7  A    between atoms: C_14  and  C_17
REMARK    8  A    between atoms: C_14  and  C_21
REMARK    9  A    between atoms: C_17  and  C_22
REMARK                            x       y       z     vdW  Elec       q    Type
REMARK                         _______ _______ _______ _____ _____    ______ ____
ROOT
ATOM      1  C   UNL     1      33.359  -3.218  20.707  0.00  0.00    -0.007 C 
ATOM      2  C   UNL     1      32.687  -3.452  20.003  0.00  0.00    -0.032 C 
ENDROOT
BRANCH   1   7
ATOM      3 CL   UNL     1      37.091  -2.230  19.660  0.00  0.00    -0.084 Cl
ATOM      4  C   UNL     1      36.158  -2.477  19.922  0.00  0.00    +0.041 A 
ATOM      5  C   UNL     1      35.932  -3.429  20.128  0.00  0.00    +0.020 A 
ATOM      6  C   UNL     1      34.999  -3.676  20.390  0.00  0.00    +0.010 A 
ATOM      7  C   UNL     1      34.292  -2.971  20.445  0.00  0.00    -0.017 A 
ATOM      8  C   UNL     1      34.518  -2.019  20.239  0.00  0.00    +0.010 A 
ATOM      9  C   UNL     1      35.451  -1.772  19.978  0.00  0.00    +0.020 A 
ENDBRANCH   1   7
BRANCH   2  10
ATOM     10  C   UNL     1      32.949  -3.439  19.038  0.00  0.00    -0.021 A 
ATOM     11  C   UNL     1      32.867  -2.594  18.510  0.00  0.00    +0.009 A 
ATOM     12  C   UNL     1      33.128  -2.581  17.545  0.00  0.00    +0.020 A 
ATOM     13  C   UNL     1      33.473  -3.412  17.108  0.00  0.00    +0.041 A 
ATOM     14  C   UNL     1      33.555  -4.257  17.637  0.00  0.00    +0.020 A 
ATOM     15 CL   UNL     1      33.735  -3.399  16.143  0.00  0.00    -0.084 Cl
ATOM     16  C   UNL     1      33.294  -4.270  18.602  0.00  0.00    +0.009 A 
ENDBRANCH   2  10
BRANCH   1  17
ATOM     17  C   UNL     1      33.097  -3.232  21.672  0.00  0.00    -0.017 A 
ATOM     18  C   UNL     1      33.195  -4.072  22.205  0.00  0.00    +0.012 A 
ATOM     19  C   UNL     1      32.933  -4.085  23.170  0.00  0.00    +0.046 A 
ATOM     20  C   UNL     1      32.573  -3.258  23.602  0.00  0.00    +0.121 A 
ATOM     21  C   UNL     1      32.475  -2.418  23.069  0.00  0.00    +0.046 A 
ATOM     22  C   UNL     1      32.737  -2.405  22.104  0.00  0.00    +0.012 A 
BRANCH  20  23
ATOM     23  O   UNL     1      32.312  -3.272  24.567  0.00  0.00    -0.491 OA
BRANCH  23  24
ATOM     24  C   UNL     1      32.621  -2.544  25.179  0.00  0.00    +0.244 C 
BRANCH  24  25
ATOM     25  C   UNL     1      32.712  -2.720  26.159  0.00  0.00    +0.125 C 
BRANCH  25  26
ATOM     26  N   UNL     1      32.882  -1.963  26.790  0.00  0.00    -0.299 NA
ATOM     27  C   UNL     1      33.712  -1.408  26.832  0.00  0.00    +0.084 C 
ATOM     28  C   UNL     1      33.595  -0.729  27.557  0.00  0.00    +0.017 C 
ATOM     29  C   UNL     1      32.691  -0.865  27.963  0.00  0.00    +0.017 C 
ATOM     30  C   UNL     1      32.250  -1.627  27.489  0.00  0.00    +0.084 C 
ENDBRANCH  25  26
ENDBRANCH  24  25
ENDBRANCH  23  24
ENDBRANCH  20  23
ENDBRANCH   1  17
BRANCH   2  31
ATOM     31  C   UNL     1      31.754  -3.699  20.265  0.00  0.00    +0.033 C 
ATOM     32  C   UNL     1      30.978  -3.328  19.756  0.00  0.00    +0.009 C 
ENDBRANCH   2  31
TORSDOF 8
ENDMDL
MODEL 3
REMARK VINA RESULT:      -8.7      4.345      7.157
REMARK  Name = 155812439
REMARK  9 active torsions:
REMARK  status: ('A' for Active; 'I' for Inactive)
REMARK    1  A    between atoms: O_3  and  C_10
REMARK    2  A    between atoms: O_3  and  C_11
REMARK    3  A    between atoms: N_4  and  C_9
REMARK    4  A    between atoms: C_9  and  C_10
REMARK    5  A    between atoms: C_12  and  C_13
REMARK    6  A    between atoms: C_12  and  C_20
REMARK    7  A    between atoms: C_14  and  C_17
REMARK    8  A    between atoms: C_14  and  C_21
REMARK    9  A    between atoms: C_17  and  C_22
REMARK                            x       y       z     vdW  Elec       q    Type
REMARK                         _______ _______ _______ _____ _____    ______ ____
ROOT
ATOM      1  C   UNL     1      35.739  -1.689  18.806  0.00  0.00    -0.007 C 
ATOM      2  C   UNL     1      35.520  -2.058  17.903  0.00  0.00    -0.032 C 
ENDROOT
BRANCH   1   7
ATOM      3 CL   UNL     1      37.848   1.695  19.125  0.00  0.00    -0.084 Cl
ATOM      4  C   UNL     1      37.321   0.849  19.045  0.00  0.00    +0.041 A 
ATOM      5  C   UNL     1      36.321   0.882  19.028  0.00  0.00    +0.020 A 
ATOM      6  C   UNL     1      35.794   0.036  18.948  0.00  0.00    +0.010 A 
ATOM      7  C   UNL     1      36.266  -0.843  18.886  0.00  0.00    -0.017 A 
ATOM      8  C   UNL     1      37.265  -0.877  18.903  0.00  0.00    +0.010 A 
ATOM      9  C   UNL     1      37.793  -0.031  18.983  0.00  0.00    +0.020 A 
ENDBRANCH   1   7
BRANCH   2  10
ATOM     10  C   UNL     1      35.828  -1.581  17.079  0.00  0.00    -0.021 A 
ATOM     11  C   UNL     1      36.719  -1.797  16.681  0.00  0.00    +0.009 A 
ATOM     12  C   UNL     1      37.027  -1.320  15.858  0.00  0.00    +0.020 A 
ATOM     13  C   UNL     1      36.444  -0.628  15.433  0.00  0.00    +0.041 A 
ATOM     14  C   UNL     1      35.552  -0.412  15.831  0.00  0.00    +0.020 A 
ATOM     15 CL   UNL     1      36.752  -0.151  14.610  0.00  0.00    -0.084 Cl
ATOM     16  C   UNL     1      35.244  -0.889  16.654  0.00  0.00    +0.009 A 
ENDBRANCH   2  10
BRANCH   1  17
ATOM     17  C   UNL     1      35.431  -2.166  19.629  0.00  0.00    -0.017 A 
ATOM     18  C   UNL     1      34.486  -2.067  19.940  0.00  0.00    +0.012 A 
ATOM     19  C   UNL     1      34.178  -2.544  20.763  0.00  0.00    +0.046 A 
ATOM     20  C   UNL     1      34.815  -3.120  21.275  0.00  0.00    +0.121 A 
ATOM     21  C   UNL     1      35.760  -3.219  20.965  0.00  0.00    +0.046 A 
ATOM     22  C   UNL     1      36.068  -2.742  20.141  0.00  0.00    +0.012 A 
BRANCH  20  23
ATOM     23  O   UNL     1      34.507  -3.597  22.099  0.00  0.00    -0.491 OA
BRANCH  23  24
ATOM     24  C   UNL     1      33.795  -3.193  22.673  0.00  0.00    +0.244 C 
BRANCH  24  25
ATOM     25  C   UNL     1      33.471  -3.680  23.484  0.00  0.00    +0.125 C 
BRANCH  25  26
ATOM     26  N   UNL     1      32.957  -3.192  24.189  0.00  0.00    -0.299 NA
ATOM     27  C   UNL     1      33.006  -3.358  25.174  0.00  0.00    +0.084 C 
ATOM     28  C   UNL     1      32.383  -2.720  25.627  0.00  0.00    +0.017 C 
ATOM     29  C   UNL     1      31.949  -2.159  24.922  0.00  0.00    +0.017 C 
ATOM     30  C   UNL     1      32.304  -2.450  24.033  0.00  0.00    +0.084 C 
ENDBRANCH  25  26
ENDBRANCH  24  25
ENDBRANCH  23  24
ENDBRANCH  20  23
ENDBRANCH   1  17
BRANCH   2  31
ATOM     31  C   UNL     1      34.992  -2.904  17.823  0.00  0.00    +0.033 C 
ATOM     32  C   UNL     1      35.321  -3.644  17.236  0.00  0.00    +0.009 C 
ENDBRANCH   2  31
TORSDOF 8
ENDMDL
MODEL 4
REMARK VINA RESULT:      -8.7      7.118      8.311
REMARK  Name = 155812439
REMARK  9 active torsions:
REMARK  status: ('A' for Active; 'I' for Inactive)
REMARK    1  A    between atoms: O_3  and  C_10
REMARK    2  A    between atoms: O_3  and  C_11
REMARK    3  A    between atoms: N_4  and  C_9
REMARK    4  A    between atoms: C_9  and  C_10
REMARK    5  A    between atoms: C_12  and  C_13
REMARK    6  A    between atoms: C_12  and  C_20
REMARK    7  A    between atoms: C_14  and  C_17
REMARK    8  A    between atoms: C_14  and  C_21
REMARK    9  A    between atoms: C_17  and  C_22
REMARK                            x       y       z     vdW  Elec       q    Type
REMARK                         _______ _______ _______ _____ _____    ______ ____
ROOT
ATOM      1  C   UNL     1      33.086  -3.696  18.962  0.00  0.00    -0.007 C 
ATOM      2  C   UNL     1      33.692  -4.291  18.435  0.00  0.00    -0.032 C 
ENDROOT
BRANCH   1   7
ATOM      3 CL   UNL     1      30.159  -1.687  17.119  0.00  0.00    -0.084 Cl
ATOM      4  C   UNL     1      30.891  -2.189  17.580  0.00  0.00    +0.041 A 
ATOM      5  C   UNL     1      31.815  -1.808  17.613  0.00  0.00    +0.020 A 
ATOM      6  C   UNL     1      32.546  -2.310  18.074  0.00  0.00    +0.010 A 
ATOM      7  C   UNL     1      32.354  -3.194  18.501  0.00  0.00    -0.017 A 
ATOM      8  C   UNL     1      31.430  -3.575  18.467  0.00  0.00    +0.010 A 
ATOM      9  C   UNL     1      30.699  -3.073  18.006  0.00  0.00    +0.020 A 
ENDBRANCH   1   7
BRANCH   2  10
ATOM     10  C   UNL     1      33.567  -4.384  17.447  0.00  0.00    -0.021 A 
ATOM     11  C   UNL     1      32.980  -5.107  17.084  0.00  0.00    +0.009 A 
ATOM     12  C   UNL     1      32.855  -5.200  16.096  0.00  0.00    +0.020 A 
ATOM     13  C   UNL     1      33.317  -4.570  15.472  0.00  0.00    +0.041 A 
ATOM     14  C   UNL     1      33.904  -3.847  15.836  0.00  0.00    +0.020 A 
ATOM     15 CL   UNL     1      33.192  -4.663  14.484  0.00  0.00    -0.084 Cl
ATOM     16  C   UNL     1      34.029  -3.754  16.823  0.00  0.00    +0.009 A 
ENDBRANCH   2  10
BRANCH   1  17
ATOM     17  C   UNL     1      33.211  -3.603  19.950  0.00  0.00    -0.017 A 
ATOM     18  C   UNL     1      33.761  -2.852  20.316  0.00  0.00    +0.012 A 
ATOM     19  C   UNL     1      33.886  -2.759  21.304  0.00  0.00    +0.046 A 
ATOM     20  C   UNL     1      33.461  -3.417  21.925  0.00  0.00    +0.121 A 
ATOM     21  C   UNL     1      32.910  -4.167  21.560  0.00  0.00    +0.046 A 
ATOM     22  C   UNL     1      32.785  -4.260  20.572  0.00  0.00    +0.012 A 
BRANCH  20  23
ATOM     23  O   UNL     1      33.586  -3.324  22.913  0.00  0.00    -0.491 OA
BRANCH  23  24
ATOM     24  C   UNL     1      32.802  -3.118  23.499  0.00  0.00    +0.244 C 
BRANCH  24  25
ATOM     25  C   UNL     1      32.931  -2.591  24.339  0.00  0.00    +0.125 C 
BRANCH  25  26
ATOM     26  N   UNL     1      32.137  -2.301  24.874  0.00  0.00    -0.299 NA
ATOM     27  C   UNL     1      31.630  -1.447  24.759  0.00  0.00    +0.084 C 
ATOM     28  C   UNL     1      30.891  -1.432  25.431  0.00  0.00    +0.017 C 
ATOM     29  C   UNL     1      30.940  -2.278  25.963  0.00  0.00    +0.017 C 
ATOM     30  C   UNL     1      31.710  -2.815  25.618  0.00  0.00    +0.084 C 
ENDBRANCH  25  26
ENDBRANCH  24  25
ENDBRANCH  23  24
ENDBRANCH  20  23
ENDBRANCH   1  17
BRANCH   2  31
ATOM     31  C   UNL     1      34.424  -4.793  18.896  0.00  0.00    +0.033 C 
ATOM     32  C   UNL     1      35.352  -4.779  18.524  0.00  0.00    +0.009 C 
ENDBRANCH   2  31
TORSDOF 8
ENDMDL
MODEL 5
REMARK VINA RESULT:      -8.7      5.194      7.970
REMARK  Name = 155812439
REMARK  9 active torsions:
REMARK  status: ('A' for Active; 'I' for Inactive)
REMARK    1  A    between atoms: O_3  and  C_10
REMARK    2  A    between atoms: O_3  and  C_11
REMARK    3  A    between atoms: N_4  and  C_9
REMARK    4  A    between atoms: C_9  and  C_10
REMARK    5  A    between atoms: C_12  and  C_13
REMARK    6  A    between atoms: C_12  and  C_20
REMARK    7  A    between atoms: C_14  and  C_17
REMARK    8  A    between atoms: C_14  and  C_21
REMARK    9  A    between atoms: C_17  and  C_22
REMARK                            x       y       z     vdW  Elec       q    Type
REMARK                         _______ _______ _______ _____ _____    ______ ____
ROOT
ATOM      1  C   UNL     1      34.673  -3.066  19.955  0.00  0.00    -0.007 C 
ATOM      2  C   UNL     1      34.282  -3.611  19.213  0.00  0.00    -0.032 C 
ENDROOT
BRANCH   1   7
ATOM      3 CL   UNL     1      37.164  -0.050  19.121  0.00  0.00    -0.084 Cl
ATOM      4  C   UNL     1      36.541  -0.804  19.330  0.00  0.00    +0.041 A 
ATOM      5  C   UNL     1      36.904  -1.720  19.499  0.00  0.00    +0.020 A 
ATOM      6  C   UNL     1      36.282  -2.474  19.707  0.00  0.00    +0.010 A 
ATOM      7  C   UNL     1      35.296  -2.312  19.746  0.00  0.00    -0.017 A 
ATOM      8  C   UNL     1      34.932  -1.396  19.578  0.00  0.00    +0.010 A 
ATOM      9  C   UNL     1      35.555  -0.642  19.369  0.00  0.00    +0.020 A 
ENDBRANCH   1   7
BRANCH   2  10
ATOM     10  C   UNL     1      34.514  -3.403  18.263  0.00  0.00    -0.021 A 
ATOM     11  C   UNL     1      35.324  -3.813  17.845  0.00  0.00    +0.009 A 
ATOM     12  C   UNL     1      35.556  -3.604  16.895  0.00  0.00    +0.020 A 
ATOM     13  C   UNL     1      34.978  -2.985  16.363  0.00  0.00    +0.041 A 
ATOM     14  C   UNL     1      34.168  -2.574  16.782  0.00  0.00    +0.020 A 
ATOM     15 CL   UNL     1      35.210  -2.776  15.413  0.00  0.00    -0.084 Cl
ATOM     16  C   UNL     1      33.936  -2.783  17.732  0.00  0.00    +0.009 A 
ENDBRANCH   2  10
BRANCH   1  17
ATOM     17  C   UNL     1      34.441  -3.275  20.905  0.00  0.00    -0.017 A 
ATOM     18  C   UNL     1      33.608  -2.899  21.310  0.00  0.00    +0.012 A 
ATOM     19  C   UNL     1      33.375  -3.108  22.260  0.00  0.00    +0.046 A 
ATOM     20  C   UNL     1      33.976  -3.693  22.805  0.00  0.00    +0.121 A 
ATOM     21  C   UNL     1      34.810  -4.069  22.399  0.00  0.00    +0.046 A 
ATOM     22  C   UNL     1      35.042  -3.860  21.449  0.00  0.00    +0.012 A 
BRANCH  20  23
ATOM     23  O   UNL     1      33.744  -3.901  23.755  0.00  0.00    -0.491 OA
BRANCH  23  24
ATOM     24  C   UNL     1      33.231  -3.240  24.301  0.00  0.00    +0.244 C 
BRANCH  24  25
ATOM     25  C   UNL     1      33.031  -3.433  25.262  0.00  0.00    +0.125 C 
BRANCH  25  26
ATOM     26  N   UNL     1      32.540  -2.759  25.815  0.00  0.00    -0.299 NA
ATOM     27  C   UNL     1      32.956  -2.065  26.402  0.00  0.00    +0.084 C 
ATOM     28  C   UNL     1      32.220  -1.539  26.828  0.00  0.00    +0.017 C 
ATOM     29  C   UNL     1      31.349  -1.908  26.505  0.00  0.00    +0.017 C 
ATOM     30  C   UNL     1      31.546  -2.662  25.879  0.00  0.00    +0.084 C 
ENDBRANCH  25  26
ENDBRANCH  24  25
ENDBRANCH  23  24
ENDBRANCH  20  23
ENDBRANCH   1  17
BRANCH   2  31
ATOM     31  C   UNL     1      33.659  -4.365  19.422  0.00  0.00    +0.033 C 
ATOM     32  C   UNL     1      33.820  -5.270  19.027  0.00  0.00    +0.009 C 
ENDBRANCH   2  31
TORSDOF 8
ENDMDL
MODEL 6
REMARK VINA RESULT:      -8.5      1.030      2.699
REMARK  Name = 155812439
REMARK  9 active torsions:
REMARK  status: ('A' for Active; 'I' for Inactive)
REMARK    1  A    between atoms: O_3  and  C_10
REMARK    2  A    between atoms: O_3  and  C_11
REMARK    3  A    between atoms: N_4  and  C_9
REMARK    4  A    between atoms: C_9  and  C_10
REMARK    5  A    between atoms: C_12  and  C_13
REMARK    6  A    between atoms: C_12  and  C_20
REMARK    7  A    between atoms: C_14  and  C_17
REMARK    8  A    between atoms: C_14  and  C_21
REMARK    9  A    between atoms: C_17  and  C_22
REMARK                            x       y       z     vdW  Elec       q    Type
REMARK                         _______ _______ _______ _____ _____    ______ ____
ROOT
ATOM      1  C   UNL     1      36.969   0.710  17.509  0.00  0.00    -0.007 C 
ATOM      2  C   UNL     1      35.977   0.674  17.389  0.00  0.00    -0.032 C 
ENDROOT
BRANCH   1   7
ATOM      3 CL   UNL     1      39.048  -2.672  17.997  0.00  0.00    -0.084 Cl
ATOM      4  C   UNL     1      38.528  -1.827  17.875  0.00  0.00    +0.041 A 
ATOM      5  C   UNL     1      38.378  -1.460  16.957  0.00  0.00    +0.020 A 
ATOM      6  C   UNL     1      37.859  -0.614  16.835  0.00  0.00    +0.010 A 
ATOM      7  C   UNL     1      37.489  -0.135  17.631  0.00  0.00    -0.017 A 
ATOM      8  C   UNL     1      37.638  -0.502  18.549  0.00  0.00    +0.010 A 
ATOM      9  C   UNL     1      38.158  -1.348  18.671  0.00  0.00    +0.020 A 
ENDBRANCH   1   7
BRANCH   2  10
ATOM     10  C   UNL     1      35.504  -0.207  17.392  0.00  0.00    -0.021 A 
ATOM     11  C   UNL     1      35.399  -0.720  16.540  0.00  0.00    +0.009 A 
ATOM     12  C   UNL     1      34.926  -1.602  16.543  0.00  0.00    +0.020 A 
ATOM     13  C   UNL     1      34.559  -1.970  17.397  0.00  0.00    +0.041 A 
ATOM     14  C   UNL     1      34.665  -1.457  18.249  0.00  0.00    +0.020 A 
ATOM     15 CL   UNL     1      34.087  -2.851  17.400  0.00  0.00    -0.084 Cl
ATOM     16  C   UNL     1      35.137  -0.575  18.246  0.00  0.00    +0.009 A 
ENDBRANCH   2  10
BRANCH   1  17
ATOM     17  C   UNL     1      37.441   1.591  17.506  0.00  0.00    -0.017 A 
ATOM     18  C   UNL     1      37.779   1.975  16.647  0.00  0.00    +0.012 A 
ATOM     19  C   UNL     1      38.252   2.856  16.644  0.00  0.00    +0.046 A 
ATOM     20  C   UNL     1      38.386   3.354  17.501  0.00  0.00    +0.121 A 
ATOM     21  C   UNL     1      38.048   2.971  18.360  0.00  0.00    +0.046 A 
ATOM     22  C   UNL     1      37.576   2.089  18.363  0.00  0.00    +0.012 A 
BRANCH  20  23
ATOM     23  O   UNL     1      38.859   4.235  17.498  0.00  0.00    -0.491 OA
BRANCH  23  24
ATOM     24  C   UNL     1      38.822   4.825  18.305  0.00  0.00    +0.244 C 
BRANCH  24  25
ATOM     25  C   UNL     1      39.077   5.789  18.232  0.00  0.00    +0.125 C 
BRANCH  25  26
ATOM     26  N   UNL     1      39.417   6.279  19.035  0.00  0.00    -0.299 NA
ATOM     27  C   UNL     1      40.289   6.118  19.495  0.00  0.00    +0.084 C 
ATOM     28  C   UNL     1      40.356   6.755  20.263  0.00  0.00    +0.017 C 
ATOM     29  C   UNL     1      39.524   7.310  20.278  0.00  0.00    +0.017 C 
ATOM     30  C   UNL     1      38.944   7.015  19.519  0.00  0.00    +0.084 C 
ENDBRANCH  25  26
ENDBRANCH  24  25
ENDBRANCH  23  24
ENDBRANCH  20  23
ENDBRANCH   1  17
BRANCH   2  31
ATOM     31  C   UNL     1      35.457   1.520  17.267  0.00  0.00    +0.033 C 
ATOM     32  C   UNL     1      34.803   1.600  16.515  0.00  0.00    +0.009 C 
ENDBRANCH   2  31
TORSDOF 8
ENDMDL
MODEL 7
REMARK VINA RESULT:      -8.5      3.293      5.136
REMARK  Name = 155812439
REMARK  9 active torsions:
REMARK  status: ('A' for Active; 'I' for Inactive)
REMARK    1  A    between atoms: O_3  and  C_10
REMARK    2  A    between atoms: O_3  and  C_11
REMARK    3  A    between atoms: N_4  and  C_9
REMARK    4  A    between atoms: C_9  and  C_10
REMARK    5  A    between atoms: C_12  and  C_13
REMARK    6  A    between atoms: C_12  and  C_20
REMARK    7  A    between atoms: C_14  and  C_17
REMARK    8  A    between atoms: C_14  and  C_21
REMARK    9  A    between atoms: C_17  and  C_22
REMARK                            x       y       z     vdW  Elec       q    Type
REMARK                         _______ _______ _______ _____ _____    ______ ____
ROOT
ATOM      1  C   UNL     1      33.792  -2.705  17.899  0.00  0.00    -0.007 C 
ATOM      2  C   UNL     1      34.218  -3.480  17.432  0.00  0.00    -0.032 C 
ENDROOT
BRANCH   1   7
ATOM      3 CL   UNL     1      29.883  -2.778  18.740  0.00  0.00    -0.084 Cl
ATOM      4  C   UNL     1      30.860  -2.760  18.530  0.00  0.00    +0.041 A 
ATOM      5  C   UNL     1      31.517  -3.152  19.174  0.00  0.00    +0.020 A 
ATOM      6  C   UNL     1      32.495  -3.133  18.963  0.00  0.00    +0.010 A 
ATOM      7  C   UNL     1      32.815  -2.723  18.109  0.00  0.00    -0.017 A 
ATOM      8  C   UNL     1      32.158  -2.331  17.466  0.00  0.00    +0.010 A 
ATOM      9  C   UNL     1      31.180  -2.350  17.676  0.00  0.00    +0.020 A 
ENDBRANCH   1   7
BRANCH   2  10
ATOM     10  C   UNL     1      33.666  -4.273  17.175  0.00  0.00    -0.021 A 
ATOM     11  C   UNL     1      33.172  -4.278  16.305  0.00  0.00    +0.009 A 
ATOM     12  C   UNL     1      32.620  -5.071  16.048  0.00  0.00    +0.020 A 
ATOM     13  C   UNL     1      32.562  -5.860  16.660  0.00  0.00    +0.041 A 
ATOM     14  C   UNL     1      33.055  -5.855  17.530  0.00  0.00    +0.020 A 
ATOM     15 CL   UNL     1      32.010  -6.653  16.403  0.00  0.00    -0.084 Cl
ATOM     16  C   UNL     1      33.607  -5.061  17.787  0.00  0.00    +0.009 A 
ENDBRANCH   2  10
BRANCH   1  17
ATOM     17  C   UNL     1      34.344  -1.912  18.156  0.00  0.00    -0.017 A 
ATOM     18  C   UNL     1      34.435  -1.140  17.527  0.00  0.00    +0.012 A 
ATOM     19  C   UNL     1      34.987  -0.347  17.784  0.00  0.00    +0.046 A 
ATOM     20  C   UNL     1      35.448  -0.325  18.671  0.00  0.00    +0.121 A 
ATOM     21  C   UNL     1      35.358  -1.097  19.300  0.00  0.00    +0.046 A 
ATOM     22  C   UNL     1      34.806  -1.890  19.043  0.00  0.00    +0.012 A 
BRANCH  20  23
ATOM     23  O   UNL     1      36.000   0.468  18.928  0.00  0.00    -0.491 OA
BRANCH  23  24
ATOM     24  C   UNL     1      36.890   0.619  18.497  0.00  0.00    +0.244 C 
BRANCH  24  25
ATOM     25  C   UNL     1      37.512   1.310  18.863  0.00  0.00    +0.125 C 
BRANCH  25  26
ATOM     26  N   UNL     1      37.836   2.053  18.277  0.00  0.00    -0.299 NA
ATOM     27  C   UNL     1      38.030   1.987  17.299  0.00  0.00    +0.084 C 
ATOM     28  C   UNL     1      38.337   2.885  16.983  0.00  0.00    +0.017 C 
ATOM     29  C   UNL     1      38.334   3.506  17.767  0.00  0.00    +0.017 C 
ATOM     30  C   UNL     1      38.024   2.992  18.567  0.00  0.00    +0.084 C 
ENDBRANCH  25  26
ENDBRANCH  24  25
ENDBRANCH  23  24
ENDBRANCH  20  23
ENDBRANCH   1  17
BRANCH   2  31
ATOM     31  C   UNL     1      35.195  -3.462  17.222  0.00  0.00    +0.033 C 
ATOM     32  C   UNL     1      35.514  -3.702  16.305  0.00  0.00    +0.009 C 
ENDBRANCH   2  31
TORSDOF 8
ENDMDL
MODEL 8
REMARK VINA RESULT:      -8.5      5.727      7.988
REMARK  Name = 155812439
REMARK  9 active torsions:
REMARK  status: ('A' for Active; 'I' for Inactive)
REMARK    1  A    between atoms: O_3  and  C_10
REMARK    2  A    between atoms: O_3  and  C_11
REMARK    3  A    between atoms: N_4  and  C_9
REMARK    4  A    between atoms: C_9  and  C_10
REMARK    5  A    between atoms: C_12  and  C_13
REMARK    6  A    between atoms: C_12  and  C_20
REMARK    7  A    between atoms: C_14  and  C_17
REMARK    8  A    between atoms: C_14  and  C_21
REMARK    9  A    between atoms: C_17  and  C_22
REMARK                            x       y       z     vdW  Elec       q    Type
REMARK                         _______ _______ _______ _____ _____    ______ ____
ROOT
ATOM      1  C   UNL     1      34.022  -3.008  19.698  0.00  0.00    -0.007 C 
ATOM      2  C   UNL     1      34.821  -2.453  19.466  0.00  0.00    -0.032 C 
ENDROOT
BRANCH   1   7
ATOM      3 CL   UNL     1      31.560  -4.274  16.810  0.00  0.00    -0.084 Cl
ATOM      4  C   UNL     1      32.175  -3.957  17.532  0.00  0.00    +0.041 A 
ATOM      5  C   UNL     1      32.949  -4.525  17.814  0.00  0.00    +0.020 A 
ATOM      6  C   UNL     1      33.564  -4.209  18.536  0.00  0.00    +0.010 A 
ATOM      7  C   UNL     1      33.406  -3.325  18.976  0.00  0.00    -0.017 A 
ATOM      8  C   UNL     1      32.633  -2.757  18.694  0.00  0.00    +0.010 A 
ATOM      9  C   UNL     1      32.017  -3.074  17.972  0.00  0.00    +0.020 A 
ENDBRANCH   1   7
BRANCH   2  10
ATOM     10  C   UNL     1      35.004  -2.215  18.513  0.00  0.00    -0.021 A 
ATOM     11  C   UNL     1      34.653  -1.358  18.135  0.00  0.00    +0.009 A 
ATOM     12  C   UNL     1      34.837  -1.120  17.181  0.00  0.00    +0.020 A 
ATOM     13  C   UNL     1      35.371  -1.738  16.605  0.00  0.00    +0.041 A 
ATOM     14  C   UNL     1      35.722  -2.595  16.983  0.00  0.00    +0.020 A 
ATOM     15 CL   UNL     1      35.555  -1.500  15.652  0.00  0.00    -0.084 Cl
ATOM     16  C   UNL     1      35.539  -2.833  17.937  0.00  0.00    +0.009 A 
ENDBRANCH   2  10
BRANCH   1  17
ATOM     17  C   UNL     1      33.838  -3.247  20.652  0.00  0.00    -0.017 A 
ATOM     18  C   UNL     1      33.257  -2.656  21.212  0.00  0.00    +0.012 A 
ATOM     19  C   UNL     1      33.074  -2.894  22.165  0.00  0.00    +0.046 A 
ATOM     20  C   UNL     1      33.471  -3.724  22.559  0.00  0.00    +0.121 A 
ATOM     21  C   UNL     1      34.051  -4.314  21.999  0.00  0.00    +0.046 A 
ATOM     22  C   UNL     1      34.235  -4.076  21.045  0.00  0.00    +0.012 A 
BRANCH  20  23
ATOM     23  O   UNL     1      33.287  -3.962  23.512  0.00  0.00    -0.491 OA
BRANCH  23  24
ATOM     24  C   UNL     1      33.053  -3.246  24.171  0.00  0.00    +0.244 C 
BRANCH  24  25
ATOM     25  C   UNL     1      32.949  -3.473  25.139  0.00  0.00    +0.125 C 
BRANCH  25  26
ATOM     26  N   UNL     1      32.609  -2.784  25.780  0.00  0.00    -0.299 NA
ATOM     27  C   UNL     1      33.160  -2.096  26.250  0.00  0.00    +0.084 C 
ATOM     28  C   UNL     1      32.549  -1.549  26.823  0.00  0.00    +0.017 C 
ATOM     29  C   UNL     1      31.620  -1.900  26.707  0.00  0.00    +0.017 C 
ATOM     30  C   UNL     1      31.657  -2.663  26.062  0.00  0.00    +0.084 C 
ENDBRANCH  25  26
ENDBRANCH  24  25
ENDBRANCH  23  24
ENDBRANCH  20  23
ENDBRANCH   1  17
BRANCH   2  31
ATOM     31  C   UNL     1      35.436  -2.137  20.188  0.00  0.00    +0.033 C 
ATOM     32  C   UNL     1      36.426  -2.221  20.074  0.00  0.00    +0.009 C 
ENDBRANCH   2  31
TORSDOF 8
ENDMDL
MODEL 9
REMARK VINA RESULT:      -8.4      4.054      8.511
REMARK  Name = 155812439
REMARK  9 active torsions:
REMARK  status: ('A' for Active; 'I' for Inactive)
REMARK    1  A    between atoms: O_3  and  C_10
REMARK    2  A    between atoms: O_3  and  C_11
REMARK    3  A    between atoms: N_4  and  C_9
REMARK    4  A    between atoms: C_9  and  C_10
REMARK    5  A    between atoms: C_12  and  C_13
REMARK    6  A    between atoms: C_12  and  C_20
REMARK    7  A    between atoms: C_14  and  C_17
REMARK    8  A    between atoms: C_14  and  C_21
REMARK    9  A    between atoms: C_17  and  C_22
REMARK                            x       y       z     vdW  Elec       q    Type
REMARK                         _______ _______ _______ _____ _____    ______ ____
ROOT
ATOM      1  C   UNL     1      39.572   6.501  18.682  0.00  0.00    -0.007 C 
ATOM      2  C   UNL     1      38.960   7.276  18.837  0.00  0.00    -0.032 C 
ENDROOT
BRANCH   1   7
ATOM      3 CL   UNL     1      43.268   6.534  20.211  0.00  0.00    -0.084 Cl
ATOM      4  C   UNL     1      42.344   6.526  19.829  0.00  0.00    +0.041 A 
ATOM      5  C   UNL     1      41.577   6.199  20.381  0.00  0.00    +0.020 A 
ATOM      6  C   UNL     1      40.653   6.191  19.999  0.00  0.00    +0.010 A 
ATOM      7  C   UNL     1      40.496   6.509  19.064  0.00  0.00    -0.017 A 
ATOM      8  C   UNL     1      41.262   6.836  18.512  0.00  0.00    +0.010 A 
ATOM      9  C   UNL     1      42.186   6.844  18.894  0.00  0.00    +0.020 A 
ENDBRANCH   1   7
BRANCH   2  10
ATOM     10  C   UNL     1      39.272   8.060  19.374  0.00  0.00    -0.021 A 
ATOM     11  C   UNL     1      39.076   8.105  20.353  0.00  0.00    +0.009 A 
ATOM     12  C   UNL     1      39.388   8.889  20.890  0.00  0.00    +0.020 A 
ATOM     13  C   UNL     1      39.896   9.628  20.447  0.00  0.00    +0.041 A 
ATOM     14  C   UNL     1      40.092   9.583  19.467  0.00  0.00    +0.020 A 
ATOM     15 CL   UNL     1      40.208  10.412  20.983  0.00  0.00    -0.084 Cl
ATOM     16  C   UNL     1      39.780   8.799  18.931  0.00  0.00    +0.009 A 
ENDBRANCH   2  10
BRANCH   1  17
ATOM     17  C   UNL     1      39.260   5.716  18.146  0.00  0.00    -0.017 A 
ATOM     18  C   UNL     1      39.405   5.698  17.157  0.00  0.00    +0.012 A 
ATOM     19  C   UNL     1      39.092   4.914  16.620  0.00  0.00    +0.046 A 
ATOM     20  C   UNL     1      38.635   4.148  17.073  0.00  0.00    +0.121 A 
ATOM     21  C   UNL     1      38.490   4.167  18.062  0.00  0.00    +0.046 A 
ATOM     22  C   UNL     1      38.803   4.951  18.599  0.00  0.00    +0.012 A 
BRANCH  20  23
ATOM     23  O   UNL     1      38.323   3.364  16.536  0.00  0.00    -0.491 OA
BRANCH  23  24
ATOM     24  C   UNL     1      37.368   3.074  16.584  0.00  0.00    +0.244 C 
BRANCH  24  25
ATOM     25  C   UNL     1      37.072   2.247  16.107  0.00  0.00    +0.125 C 
BRANCH  25  26
ATOM     26  N   UNL     1      36.266   1.747  16.425  0.00  0.00    -0.299 NA
ATOM     27  C   UNL     1      35.333   2.103  16.471  0.00  0.00    +0.084 C 
ATOM     28  C   UNL     1      34.743   1.379  16.827  0.00  0.00    +0.017 C 
ATOM     29  C   UNL     1      35.312   0.575  17.002  0.00  0.00    +0.017 C 
ATOM     30  C   UNL     1      36.253   0.802  16.754  0.00  0.00    +0.084 C 
ENDBRANCH  25  26
ENDBRANCH  24  25
ENDBRANCH  23  24
ENDBRANCH  20  23
ENDBRANCH   1  17
BRANCH   2  31
ATOM     31  C   UNL     1      38.035   7.268  18.455  0.00  0.00    +0.033 C 
ATOM     32  C   UNL     1      37.678   8.079  17.992  0.00  0.00    +0.009 C 
ENDBRANCH   2  31
TORSDOF 8
ENDMDL
MODEL 10
REMARK VINA RESULT:      -8.4      1.911      3.311
REMARK  Name = 155812439
REMARK  9 active torsions:
REMARK  status: ('A' for Active; 'I' for Inactive)
REMARK    1  A    between atoms: O_3  and  C_10
REMARK    2  A    between atoms: O_3  and  C_11
REMARK    3  A    between atoms: N_4  and  C_9
REMARK    4  A    between atoms: C_9  and  C_10
REMARK    5  A    between atoms: C_12  and  C_13
REMARK    6  A    between atoms: C_12  and  C_20
REMARK    7  A    between atoms: C_14  and  C_17
REMARK    8  A    between atoms: C_14  and  C_21
REMARK    9  A    between atoms: C_17  and  C_22
REMARK                            x       y       z     vdW  Elec       q    Type
REMARK                         _______ _______ _______ _____ _____    ______ ____
ROOT
ATOM      1  C   UNL     1      37.815   1.355  16.675  0.00  0.00    -0.007 C 
ATOM      2  C   UNL     1      36.887   0.992  16.592  0.00  0.00    -0.032 C 
ENDROOT
BRANCH   1   7
ATOM      3 CL   UNL     1      40.904  -0.679  15.152  0.00  0.00    -0.084 Cl
ATOM      4  C   UNL     1      40.132  -0.170  15.533  0.00  0.00    +0.041 A 
ATOM      5  C   UNL     1      39.648   0.500  14.970  0.00  0.00    +0.020 A 
ATOM      6  C   UNL     1      38.876   1.009  15.351  0.00  0.00    +0.010 A 
ATOM      7  C   UNL     1      38.587   0.847  16.294  0.00  0.00    -0.017 A 
ATOM      8  C   UNL     1      39.070   0.176  16.857  0.00  0.00    +0.010 A 
ATOM      9  C   UNL     1      39.843  -0.332  16.476  0.00  0.00    +0.020 A 
ENDBRANCH   1   7
BRANCH   2  10
ATOM     10  C   UNL     1      36.731   0.119  16.128  0.00  0.00    -0.021 A 
ATOM     11  C   UNL     1      36.603   0.097  15.137  0.00  0.00    +0.009 A 
ATOM     12  C   UNL     1      36.447  -0.776  14.673  0.00  0.00    +0.020 A 
ATOM     13  C   UNL     1      36.420  -1.625  15.200  0.00  0.00    +0.041 A 
ATOM     14  C   UNL     1      36.549  -1.602  16.192  0.00  0.00    +0.020 A 
ATOM     15 CL   UNL     1      36.265  -2.497  14.736  0.00  0.00    -0.084 Cl
ATOM     16  C   UNL     1      36.704  -0.730  16.656  0.00  0.00    +0.009 A 
ENDBRANCH   2  10
BRANCH   1  17
ATOM     17  C   UNL     1      37.970   2.227  17.139  0.00  0.00    -0.017 A 
ATOM     18  C   UNL     1      38.067   2.254  18.134  0.00  0.00    +0.012 A 
ATOM     19  C   UNL     1      38.223   3.126  18.598  0.00  0.00    +0.046 A 
ATOM     20  C   UNL     1      38.281   3.971  18.067  0.00  0.00    +0.121 A 
ATOM     21  C   UNL     1      38.184   3.945  17.073  0.00  0.00    +0.046 A 
ATOM     22  C   UNL     1      38.029   3.073  16.609  0.00  0.00    +0.012 A 
BRANCH  20  23
ATOM     23  O   UNL     1      38.437   4.843  18.531  0.00  0.00    -0.491 OA
BRANCH  23  24
ATOM     24  C   UNL     1      39.332   5.285  18.478  0.00  0.00    +0.244 C 
BRANCH  24  25
ATOM     25  C   UNL     1      39.541   6.065  19.069  0.00  0.00    +0.125 C 
BRANCH  25  26
ATOM     26  N   UNL     1      40.488   6.261  19.321  0.00  0.00    -0.299 NA
ATOM     27  C   UNL     1      41.248   6.408  18.688  0.00  0.00    +0.084 C 
ATOM     28  C   UNL     1      42.071   6.583  19.227  0.00  0.00    +0.017 C 
ATOM     29  C   UNL     1      41.821   6.545  20.194  0.00  0.00    +0.017 C 
ATOM     30  C   UNL     1      40.843   6.347  20.253  0.00  0.00    +0.084 C 
ENDBRANCH  25  26
ENDBRANCH  24  25
ENDBRANCH  23  24
ENDBRANCH  20  23
ENDBRANCH   1  17
BRANCH   2  31
ATOM     31  C   UNL     1      36.115   1.500  16.973  0.00  0.00    +0.033 C 
ATOM     32  C   UNL     1      35.286   1.632  16.429  0.00  0.00    +0.009 C 
ENDBRANCH   2  31
TORSDOF 8
ENDMDL
