REMARK  Name = 155812439
REMARK  9 active torsions:
REMARK  status: ('A' for Active; 'I' for Inactive)
REMARK    1  A    between atoms: O_3  and  C_10
REMARK    2  A    between atoms: O_3  and  C_11
REMARK    3  A    between atoms: N_4  and  C_9
REMARK    4  A    between atoms: C_9  and  C_10
REMARK    5  A    between atoms: C_12  and  C_13
REMARK    6  A    between atoms: C_12  and  C_20
REMARK    7  A    between atoms: C_14  and  C_17
REMARK    8  A    between atoms: C_14  and  C_21
REMARK    9  A    between atoms: C_17  and  C_22
REMARK                            x       y       z     vdW  Elec       q    Type
REMARK                         _______ _______ _______ _____ _____    ______ ____
ROOT
ATOM      1  C   UNL     1       5.315   1.351   0.000  0.00  0.00    -0.007 C 
ATOM      2  C   UNL     1       4.449   1.851   0.000  0.00  0.00    -0.032 C 
ENDROOT
BRANCH   1   7
ATOM      3 CL   UNL     1       8.779   3.351   0.000  0.00  0.00    -0.084 Cl
ATOM      4  C   UNL     1       7.913   2.851   0.000  0.00  0.00    +0.041 A 
ATOM      5  C   UNL     1       7.913   1.851   0.000  0.00  0.00    +0.020 A 
ATOM      6  C   UNL     1       7.047   1.351   0.000  0.00  0.00    +0.010 A 
ATOM      7  C   UNL     1       6.181   1.851   0.000  0.00  0.00    -0.017 A 
ATOM      8  C   UNL     1       6.181   2.851   0.000  0.00  0.00    +0.010 A 
ATOM      9  C   UNL     1       7.047   3.351   0.000  0.00  0.00    +0.020 A 
ENDBRANCH   1   7
BRANCH   2  10
ATOM     10  C   UNL     1       4.449   2.851   0.000  0.00  0.00    -0.021 A 
ATOM     11  C   UNL     1       5.315   3.351   0.000  0.00  0.00    +0.009 A 
ATOM     12  C   UNL     1       5.315   4.351   0.000  0.00  0.00    +0.020 A 
ATOM     13  C   UNL     1       4.449   4.851   0.000  0.00  0.00    +0.041 A 
ATOM     14  C   UNL     1       3.583   4.351   0.000  0.00  0.00    +0.020 A 
ATOM     15 CL   UNL     1       4.449   5.851   0.000  0.00  0.00    -0.084 Cl
ATOM     16  C   UNL     1       3.583   3.351   0.000  0.00  0.00    +0.009 A 
ENDBRANCH   2  10
BRANCH   1  17
ATOM     17  C   UNL     1       5.315   0.351   0.000  0.00  0.00    -0.017 A 
ATOM     18  C   UNL     1       6.181  -0.149   0.000  0.00  0.00    +0.012 A 
ATOM     19  C   UNL     1       6.181  -1.149   0.000  0.00  0.00    +0.046 A 
ATOM     20  C   UNL     1       5.315  -1.649   0.000  0.00  0.00    +0.121 A 
ATOM     21  C   UNL     1       4.449  -1.149   0.000  0.00  0.00    +0.046 A 
ATOM     22  C   UNL     1       4.449  -0.149   0.000  0.00  0.00    +0.012 A 
BRANCH  20  23
ATOM     23  O   UNL     1       5.315  -2.649   0.000  0.00  0.00    -0.491 OA
BRANCH  23  24
ATOM     24  C   UNL     1       4.449  -3.149   0.000  0.00  0.00    +0.244 C 
BRANCH  24  25
ATOM     25  C   UNL     1       4.449  -4.149   0.000  0.00  0.00    +0.125 C 
BRANCH  25  26
ATOM     26  N   UNL     1       3.583  -4.649   0.000  0.00  0.00    -0.299 NA
ATOM     27  C   UNL     1       3.478  -5.643   0.000  0.00  0.00    +0.084 C 
ATOM     28  C   UNL     1       2.500  -5.851   0.000  0.00  0.00    +0.017 C 
ATOM     29  C   UNL     1       2.000  -4.985   0.000  0.00  0.00    +0.017 C 
ATOM     30  C   UNL     1       2.669  -4.242   0.000  0.00  0.00    +0.084 C 
ENDBRANCH  25  26
ENDBRANCH  24  25
ENDBRANCH  23  24
ENDBRANCH  20  23
ENDBRANCH   1  17
BRANCH   2  31
ATOM     31  C   UNL     1       3.583   1.351   0.000  0.00  0.00    +0.033 C 
ATOM     32  C   UNL     1       2.717   1.851   0.000  0.00  0.00    +0.009 C 
ENDBRANCH   2  31
TORSDOF 8
