REMARK  Name = 2800
REMARK  11 active torsions:
REMARK  status: ('A' for Active; 'I' for Inactive)
REMARK    1  A    between atoms: O_2  and  C_7
REMARK    2  A    between atoms: O_2  and  C_11
REMARK    3  A    between atoms: N_3  and  C_4
REMARK    4  A    between atoms: N_3  and  C_5
REMARK    5  A    between atoms: N_3  and  C_6
REMARK    6  A    between atoms: C_4  and  C_7
REMARK    7  A    between atoms: C_5  and  C_8
REMARK    8  A    between atoms: C_6  and  C_9
REMARK    9  A    between atoms: C_10  and  C_12
REMARK   10  A    between atoms: C_12  and  C_17
REMARK   11  A    between atoms: C_18  and  C_19
REMARK                            x       y       z     vdW  Elec       q    Type
REMARK                         _______ _______ _______ _____ _____    ______ ____
ROOT
ATOM      1 CL   UNL     1       3.732   2.000   0.000  0.00  0.00    -0.082 Cl
ATOM      2  C   UNL     1       4.598   2.500   0.000  0.00  0.00    +0.056 C 
ATOM      3  C   UNL     1       5.464   2.000   0.000  0.00  0.00    +0.008 C 
ENDROOT
BRANCH   2   4
ATOM      4  C   UNL     1       4.598   3.500   0.000  0.00  0.00    -0.006 A 
ATOM      5  C   UNL     1       3.732   4.000   0.000  0.00  0.00    +0.009 A 
ATOM      6  C   UNL     1       3.732   5.000   0.000  0.00  0.00    +0.001 A 
ATOM      7  C   UNL     1       4.598   5.500   0.000  0.00  0.00    +0.000 A 
ATOM      8  C   UNL     1       5.464   5.000   0.000  0.00  0.00    +0.001 A 
ATOM      9  C   UNL     1       5.464   4.000   0.000  0.00  0.00    +0.009 A 
ENDBRANCH   2   4
BRANCH   3  10
ATOM     10  C   UNL     1       6.330   2.500   0.000  0.00  0.00    -0.016 A 
ATOM     11  C   UNL     1       6.330   3.500   0.000  0.00  0.00    +0.008 A 
ATOM     12  C   UNL     1       7.196   4.000   0.000  0.00  0.00    +0.001 A 
ATOM     13  C   UNL     1       8.062   3.500   0.000  0.00  0.00    +0.000 A 
ATOM     14  C   UNL     1       8.062   2.500   0.000  0.00  0.00    +0.001 A 
ATOM     15  C   UNL     1       7.196   2.000   0.000  0.00  0.00    +0.008 A 
ENDBRANCH   3  10
BRANCH   3  16
ATOM     16  C   UNL     1       5.464   1.000   0.000  0.00  0.00    -0.016 A 
ATOM     17  C   UNL     1       4.598   0.500   0.000  0.00  0.00    +0.012 A 
ATOM     18  C   UNL     1       4.598  -0.500   0.000  0.00  0.00    +0.046 A 
ATOM     19  C   UNL     1       5.464  -1.000   0.000  0.00  0.00    +0.121 A 
ATOM     20  C   UNL     1       6.330  -0.500   0.000  0.00  0.00    +0.046 A 
ATOM     21  C   UNL     1       6.330   0.500   0.000  0.00  0.00    +0.012 A 
BRANCH  19  22
ATOM     22  O   UNL     1       5.464  -2.000   0.000  0.00  0.00    -0.491 OA
BRANCH  22  23
ATOM     23  C   UNL     1       4.598  -2.500   0.000  0.00  0.00    +0.244 C 
BRANCH  23  24
ATOM     24  C   UNL     1       4.598  -3.500   0.000  0.00  0.00    +0.125 C 
BRANCH  24  25
ATOM     25  N   UNL     1       3.732  -4.000   0.000  0.00  0.00    -0.300 NA
BRANCH  25  26
ATOM     26  C   UNL     1       2.866  -3.500   0.000  0.00  0.00    +0.081 C 
ATOM     27  C   UNL     1       2.000  -4.000   0.000  0.00  0.00    +0.020 C 
ENDBRANCH  25  26
BRANCH  25  28
ATOM     28  C   UNL     1       3.732  -5.000   0.000  0.00  0.00    +0.081 C 
ATOM     29  C   UNL     1       2.866  -5.500   0.000  0.00  0.00    +0.020 C 
ENDBRANCH  25  28
ENDBRANCH  24  25
ENDBRANCH  23  24
ENDBRANCH  22  23
ENDBRANCH  19  22
ENDBRANCH   3  16
TORSDOF 9
