MODEL 1
REMARK VINA RESULT:      -9.4      0.000      0.000
REMARK  Name = 3037789
REMARK  11 active torsions:
REMARK  status: ('A' for Active; 'I' for Inactive)
REMARK    1  A    between atoms: O_3  and  C_8
REMARK    2  A    between atoms: O_3  and  C_11
REMARK    3  A    between atoms: N_4  and  C_5
REMARK    4  A    between atoms: N_4  and  C_6
REMARK    5  A    between atoms: N_4  and  C_7
REMARK    6  A    between atoms: C_5  and  C_8
REMARK    7  A    between atoms: C_6  and  C_9
REMARK    8  A    between atoms: C_7  and  C_10
REMARK    9  A    between atoms: C_12  and  C_15
REMARK   10  A    between atoms: C_15  and  C_18
REMARK   11  A    between atoms: C_19  and  C_20
REMARK                            x       y       z     vdW  Elec       q    Type
REMARK                         _______ _______ _______ _____ _____    ______ ____
ROOT
ATOM      1 CL   UNL     1      28.476  -2.480  26.053  0.00  0.00    -0.082 Cl
ATOM      2  C   UNL     1      28.595  -1.836  26.809  0.00  0.00    +0.056 C 
ATOM      3  C   UNL     1      29.479  -1.390  26.951  0.00  0.00    +0.008 C 
ENDROOT
BRANCH   2   4
ATOM      4  C   UNL     1      27.831  -1.637  27.422  0.00  0.00    -0.006 A 
ATOM      5  C   UNL     1      27.211  -0.879  27.218  0.00  0.00    +0.009 A 
ATOM      6  C   UNL     1      26.446  -0.680  27.831  0.00  0.00    +0.001 A 
ATOM      7  C   UNL     1      26.302  -1.238  28.648  0.00  0.00    +0.000 A 
ATOM      8  C   UNL     1      26.922  -1.996  28.851  0.00  0.00    +0.001 A 
ATOM      9  C   UNL     1      27.686  -2.195  28.238  0.00  0.00    +0.009 A 
ENDBRANCH   2   4
BRANCH   3  10
ATOM     10  C   UNL     1      29.599  -0.746  27.706  0.00  0.00    -0.016 A 
ATOM     11  C   UNL     1      29.403   0.225  27.571  0.00  0.00    +0.008 A 
ATOM     12  C   UNL     1      29.522   0.870  28.326  0.00  0.00    +0.001 A 
ATOM     13  C   UNL     1      29.837   0.543  29.217  0.00  0.00    +0.000 A 
ATOM     14  C   UNL     1      30.033  -0.428  29.352  0.00  0.00    +0.001 A 
ATOM     15  C   UNL     1      29.914  -1.073  28.597  0.00  0.00    +0.008 A 
ENDBRANCH   3  10
BRANCH   3  16
ATOM     16  C   UNL     1      30.244  -1.589  26.338  0.00  0.00    -0.016 A 
ATOM     17  C   UNL     1      30.871  -2.340  26.548  0.00  0.00    +0.012 A 
ATOM     18  C   UNL     1      31.635  -2.539  25.935  0.00  0.00    +0.046 A 
ATOM     19  C   UNL     1      31.773  -1.987  25.112  0.00  0.00    +0.121 A 
ATOM     20  C   UNL     1      31.146  -1.237  24.902  0.00  0.00    +0.046 A 
ATOM     21  C   UNL     1      30.381  -1.038  25.515  0.00  0.00    +0.012 A 
BRANCH  19  22
ATOM     22  O   UNL     1      32.538  -2.186  24.499  0.00  0.00    -0.487 OA
BRANCH  22  23
ATOM     23  C   UNL     1      32.374  -2.658  23.632  0.00  0.00    +0.279 C 
BRANCH  23  24
ATOM     24  C   UNL     1      33.146  -2.940  23.063  0.00  0.00    +0.172 C 
BRANCH  24  25
ATOM     25  N   UNL     1      32.984  -3.433  22.208  0.00  0.00    +0.219 N 
ATOM     26  O   UNL     1      32.401  -2.686  21.889  0.00  0.00    -0.775 OA
BRANCH  25  27
ATOM     27  C   UNL     1      33.566  -4.180  22.528  0.00  0.00    +0.127 C 
ATOM     28  C   UNL     1      34.550  -4.159  22.348  0.00  0.00    +0.060 C 
ENDBRANCH  25  27
BRANCH  25  29
ATOM     29  C   UNL     1      32.821  -3.926  21.353  0.00  0.00    +0.127 C 
ATOM     30  C   UNL     1      32.093  -3.628  20.735  0.00  0.00    +0.060 C 
ENDBRANCH  25  29
ENDBRANCH  24  25
ENDBRANCH  23  24
ENDBRANCH  22  23
ENDBRANCH  19  22
ENDBRANCH   3  16
TORSDOF 9
ENDMDL
MODEL 2
REMARK VINA RESULT:      -9.4      2.534      3.594
REMARK  Name = 3037789
REMARK  11 active torsions:
REMARK  status: ('A' for Active; 'I' for Inactive)
REMARK    1  A    between atoms: O_3  and  C_8
REMARK    2  A    between atoms: O_3  and  C_11
REMARK    3  A    between atoms: N_4  and  C_5
REMARK    4  A    between atoms: N_4  and  C_6
REMARK    5  A    between atoms: N_4  and  C_7
REMARK    6  A    between atoms: C_5  and  C_8
REMARK    7  A    between atoms: C_6  and  C_9
REMARK    8  A    between atoms: C_7  and  C_10
REMARK    9  A    between atoms: C_12  and  C_15
REMARK   10  A    between atoms: C_15  and  C_18
REMARK   11  A    between atoms: C_19  and  C_20
REMARK                            x       y       z     vdW  Elec       q    Type
REMARK                         _______ _______ _______ _____ _____    ______ ____
ROOT
ATOM      1 CL   UNL     1      30.736  -1.403  26.510  0.00  0.00    -0.082 Cl
ATOM      2  C   UNL     1      31.479  -0.766  26.716  0.00  0.00    +0.056 C 
ATOM      3  C   UNL     1      32.272  -0.711  26.109  0.00  0.00    +0.008 C 
ENDROOT
BRANCH   2   4
ATOM      4  C   UNL     1      31.429  -0.185  27.528  0.00  0.00    -0.006 A 
ATOM      5  C   UNL     1      31.020   0.725  27.467  0.00  0.00    +0.009 A 
ATOM      6  C   UNL     1      30.970   1.306  28.279  0.00  0.00    +0.001 A 
ATOM      7  C   UNL     1      31.330   0.977  29.152  0.00  0.00    +0.000 A 
ATOM      8  C   UNL     1      31.739   0.067  29.213  0.00  0.00    +0.001 A 
ATOM      9  C   UNL     1      31.788  -0.514  28.401  0.00  0.00    +0.009 A 
ENDBRANCH   2   4
BRANCH   3  10
ATOM     10  C   UNL     1      33.015  -0.074  26.314  0.00  0.00    -0.016 A 
ATOM     11  C   UNL     1      33.781  -0.367  26.886  0.00  0.00    +0.008 A 
ATOM     12  C   UNL     1      34.524   0.270  27.091  0.00  0.00    +0.001 A 
ATOM     13  C   UNL     1      34.501   1.200  26.725  0.00  0.00    +0.000 A 
ATOM     14  C   UNL     1      33.735   1.493  26.153  0.00  0.00    +0.001 A 
ATOM     15  C   UNL     1      32.992   0.856  25.948  0.00  0.00    +0.008 A 
ENDBRANCH   3  10
BRANCH   3  16
ATOM     16  C   UNL     1      32.322  -1.292  25.297  0.00  0.00    -0.016 A 
ATOM     17  C   UNL     1      31.889  -0.998  24.444  0.00  0.00    +0.012 A 
ATOM     18  C   UNL     1      31.939  -1.579  23.632  0.00  0.00    +0.046 A 
ATOM     19  C   UNL     1      32.421  -2.454  23.672  0.00  0.00    +0.121 A 
ATOM     20  C   UNL     1      32.854  -2.748  24.524  0.00  0.00    +0.046 A 
ATOM     21  C   UNL     1      32.804  -2.167  25.337  0.00  0.00    +0.012 A 
BRANCH  19  22
ATOM     22  O   UNL     1      32.471  -3.036  22.860  0.00  0.00    -0.487 OA
BRANCH  22  23
ATOM     23  C   UNL     1      33.174  -2.870  22.169  0.00  0.00    +0.279 C 
BRANCH  23  24
ATOM     24  C   UNL     1      33.120  -3.327  21.281  0.00  0.00    +0.172 C 
BRANCH  24  25
ATOM     25  N   UNL     1      33.628  -2.963  20.500  0.00  0.00    +0.219 N 
ATOM     26  O   UNL     1      34.441  -2.867  21.074  0.00  0.00    -0.775 OA
BRANCH  25  27
ATOM     27  C   UNL     1      32.815  -3.060  19.926  0.00  0.00    +0.127 C 
ATOM     28  C   UNL     1      32.694  -3.878  19.363  0.00  0.00    +0.060 C 
ENDBRANCH  25  27
BRANCH  25  29
ATOM     29  C   UNL     1      34.136  -2.600  19.719  0.00  0.00    +0.127 C 
ATOM     30  C   UNL     1      34.926  -2.006  19.869  0.00  0.00    +0.060 C 
ENDBRANCH  25  29
ENDBRANCH  24  25
ENDBRANCH  23  24
ENDBRANCH  22  23
ENDBRANCH  19  22
ENDBRANCH   3  16
TORSDOF 9
ENDMDL
MODEL 3
REMARK VINA RESULT:      -9.1      1.517      2.726
REMARK  Name = 3037789
REMARK  11 active torsions:
REMARK  status: ('A' for Active; 'I' for Inactive)
REMARK    1  A    between atoms: O_3  and  C_8
REMARK    2  A    between atoms: O_3  and  C_11
REMARK    3  A    between atoms: N_4  and  C_5
REMARK    4  A    between atoms: N_4  and  C_6
REMARK    5  A    between atoms: N_4  and  C_7
REMARK    6  A    between atoms: C_5  and  C_8
REMARK    7  A    between atoms: C_6  and  C_9
REMARK    8  A    between atoms: C_7  and  C_10
REMARK    9  A    between atoms: C_12  and  C_15
REMARK   10  A    between atoms: C_15  and  C_18
REMARK   11  A    between atoms: C_19  and  C_20
REMARK                            x       y       z     vdW  Elec       q    Type
REMARK                         _______ _______ _______ _____ _____    ______ ____
ROOT
ATOM      1 CL   UNL     1      32.385  -0.431  26.679  0.00  0.00    -0.082 Cl
ATOM      2  C   UNL     1      31.420  -0.637  26.840  0.00  0.00    +0.056 C 
ATOM      3  C   UNL     1      30.927  -1.241  26.213  0.00  0.00    +0.008 C 
ENDROOT
BRANCH   2   4
ATOM      4  C   UNL     1      30.948  -0.240  27.627  0.00  0.00    -0.006 A 
ATOM      5  C   UNL     1      30.933  -0.729  28.500  0.00  0.00    +0.009 A 
ATOM      6  C   UNL     1      30.462  -0.332  29.287  0.00  0.00    +0.001 A 
ATOM      7  C   UNL     1      30.005   0.553  29.202  0.00  0.00    +0.000 A 
ATOM      8  C   UNL     1      30.020   1.042  28.330  0.00  0.00    +0.001 A 
ATOM      9  C   UNL     1      30.491   0.645  27.542  0.00  0.00    +0.009 A 
ENDBRANCH   2   4
BRANCH   3  10
ATOM     10  C   UNL     1      29.962  -1.448  26.375  0.00  0.00    -0.016 A 
ATOM     11  C   UNL     1      29.252  -0.868  25.974  0.00  0.00    +0.008 A 
ATOM     12  C   UNL     1      28.287  -1.074  26.135  0.00  0.00    +0.001 A 
ATOM     13  C   UNL     1      28.031  -1.861  26.697  0.00  0.00    +0.000 A 
ATOM     14  C   UNL     1      28.741  -2.441  27.098  0.00  0.00    +0.001 A 
ATOM     15  C   UNL     1      29.706  -2.234  26.936  0.00  0.00    +0.008 A 
ENDBRANCH   3  10
BRANCH   3  16
ATOM     16  C   UNL     1      31.398  -1.638  25.426  0.00  0.00    -0.016 A 
ATOM     17  C   UNL     1      31.850  -2.526  25.509  0.00  0.00    +0.012 A 
ATOM     18  C   UNL     1      32.321  -2.923  24.722  0.00  0.00    +0.046 A 
ATOM     19  C   UNL     1      32.342  -2.431  23.851  0.00  0.00    +0.121 A 
ATOM     20  C   UNL     1      31.890  -1.543  23.768  0.00  0.00    +0.046 A 
ATOM     21  C   UNL     1      31.418  -1.146  24.555  0.00  0.00    +0.012 A 
BRANCH  19  22
ATOM     22  O   UNL     1      32.813  -2.828  23.064  0.00  0.00    -0.487 OA
BRANCH  22  23
ATOM     23  C   UNL     1      32.316  -2.987  22.211  0.00  0.00    +0.279 C 
BRANCH  23  24
ATOM     24  C   UNL     1      32.762  -3.462  21.453  0.00  0.00    +0.172 C 
BRANCH  24  25
ATOM     25  N   UNL     1      32.376  -3.408  20.532  0.00  0.00    +0.219 N 
ATOM     26  O   UNL     1      31.475  -3.646  20.896  0.00  0.00    -0.775 OA
BRANCH  25  27
ATOM     27  C   UNL     1      33.276  -3.171  20.168  0.00  0.00    +0.127 C 
ATOM     28  C   UNL     1      33.917  -3.893  19.907  0.00  0.00    +0.060 C 
ENDBRANCH  25  27
BRANCH  25  29
ATOM     29  C   UNL     1      31.989  -3.355  19.611  0.00  0.00    +0.127 C 
ATOM     30  C   UNL     1      30.997  -3.356  19.485  0.00  0.00    +0.060 C 
ENDBRANCH  25  29
ENDBRANCH  24  25
ENDBRANCH  23  24
ENDBRANCH  22  23
ENDBRANCH  19  22
ENDBRANCH   3  16
TORSDOF 9
ENDMDL
MODEL 4
REMARK VINA RESULT:      -9.0      1.762      3.183
REMARK  Name = 3037789
REMARK  11 active torsions:
REMARK  status: ('A' for Active; 'I' for Inactive)
REMARK    1  A    between atoms: O_3  and  C_8
REMARK    2  A    between atoms: O_3  and  C_11
REMARK    3  A    between atoms: N_4  and  C_5
REMARK    4  A    between atoms: N_4  and  C_6
REMARK    5  A    between atoms: N_4  and  C_7
REMARK    6  A    between atoms: C_5  and  C_8
REMARK    7  A    between atoms: C_6  and  C_9
REMARK    8  A    between atoms: C_7  and  C_10
REMARK    9  A    between atoms: C_12  and  C_15
REMARK   10  A    between atoms: C_15  and  C_18
REMARK   11  A    between atoms: C_19  and  C_20
REMARK                            x       y       z     vdW  Elec       q    Type
REMARK                         _______ _______ _______ _____ _____    ______ ____
ROOT
ATOM      1 CL   UNL     1      32.878  -0.733  26.348  0.00  0.00    -0.082 Cl
ATOM      2  C   UNL     1      31.905  -0.842  26.552  0.00  0.00    +0.056 C 
ATOM      3  C   UNL     1      31.356  -1.500  26.036  0.00  0.00    +0.008 C 
ENDROOT
BRANCH   2   4
ATOM      4  C   UNL     1      31.480  -0.292  27.271  0.00  0.00    -0.006 A 
ATOM      5  C   UNL     1      31.093   0.604  27.053  0.00  0.00    +0.009 A 
ATOM      6  C   UNL     1      30.669   1.153  27.773  0.00  0.00    +0.001 A 
ATOM      7  C   UNL     1      30.632   0.807  28.710  0.00  0.00    +0.000 A 
ATOM      8  C   UNL     1      31.019  -0.089  28.928  0.00  0.00    +0.001 A 
ATOM      9  C   UNL     1      31.443  -0.638  28.209  0.00  0.00    +0.009 A 
ENDBRANCH   2   4
BRANCH   3  10
ATOM     10  C   UNL     1      30.383  -1.608  26.240  0.00  0.00    -0.016 A 
ATOM     11  C   UNL     1      30.086  -2.277  26.921  0.00  0.00    +0.008 A 
ATOM     12  C   UNL     1      29.113  -2.386  27.125  0.00  0.00    +0.001 A 
ATOM     13  C   UNL     1      28.437  -1.825  26.647  0.00  0.00    +0.000 A 
ATOM     14  C   UNL     1      28.734  -1.156  25.966  0.00  0.00    +0.001 A 
ATOM     15  C   UNL     1      29.707  -1.048  25.762  0.00  0.00    +0.008 A 
ENDBRANCH   3  10
BRANCH   3  16
ATOM     16  C   UNL     1      31.780  -2.050  25.316  0.00  0.00    -0.016 A 
ATOM     17  C   UNL     1      31.772  -1.727  24.370  0.00  0.00    +0.012 A 
ATOM     18  C   UNL     1      32.196  -2.276  23.650  0.00  0.00    +0.046 A 
ATOM     19  C   UNL     1      32.629  -3.149  23.877  0.00  0.00    +0.121 A 
ATOM     20  C   UNL     1      32.637  -3.472  24.823  0.00  0.00    +0.046 A 
ATOM     21  C   UNL     1      32.213  -2.922  25.543  0.00  0.00    +0.012 A 
BRANCH  19  22
ATOM     22  O   UNL     1      33.053  -3.699  23.158  0.00  0.00    -0.487 OA
BRANCH  22  23
ATOM     23  C   UNL     1      33.926  -3.415  22.761  0.00  0.00    +0.279 C 
BRANCH  23  24
ATOM     24  C   UNL     1      34.392  -4.006  22.102  0.00  0.00    +0.172 C 
BRANCH  24  25
ATOM     25  N   UNL     1      35.241  -3.702  21.671  0.00  0.00    +0.219 N 
ATOM     26  O   UNL     1      34.733  -3.014  21.154  0.00  0.00    -0.775 OA
BRANCH  25  27
ATOM     27  C   UNL     1      35.750  -4.391  22.188  0.00  0.00    +0.127 C 
ATOM     28  C   UNL     1      35.989  -5.262  21.759  0.00  0.00    +0.060 C 
ENDBRANCH  25  27
BRANCH  25  29
ATOM     29  C   UNL     1      36.091  -3.399  21.239  0.00  0.00    +0.127 C 
ATOM     30  C   UNL     1      36.087  -2.605  20.632  0.00  0.00    +0.060 C 
ENDBRANCH  25  29
ENDBRANCH  24  25
ENDBRANCH  23  24
ENDBRANCH  22  23
ENDBRANCH  19  22
ENDBRANCH   3  16
TORSDOF 9
ENDMDL
MODEL 5
REMARK VINA RESULT:      -8.1      8.057     10.053
REMARK  Name = 3037789
REMARK  11 active torsions:
REMARK  status: ('A' for Active; 'I' for Inactive)
REMARK    1  A    between atoms: O_3  and  C_8
REMARK    2  A    between atoms: O_3  and  C_11
REMARK    3  A    between atoms: N_4  and  C_5
REMARK    4  A    between atoms: N_4  and  C_6
REMARK    5  A    between atoms: N_4  and  C_7
REMARK    6  A    between atoms: C_5  and  C_8
REMARK    7  A    between atoms: C_6  and  C_9
REMARK    8  A    between atoms: C_7  and  C_10
REMARK    9  A    between atoms: C_12  and  C_15
REMARK   10  A    between atoms: C_15  and  C_18
REMARK   11  A    between atoms: C_19  and  C_20
REMARK                            x       y       z     vdW  Elec       q    Type
REMARK                         _______ _______ _______ _____ _____    ______ ____
ROOT
ATOM      1 CL   UNL     1      34.677  -3.576  17.035  0.00  0.00    -0.082 Cl
ATOM      2  C   UNL     1      33.706  -3.541  17.270  0.00  0.00    +0.056 C 
ATOM      3  C   UNL     1      33.353  -2.788  17.826  0.00  0.00    +0.008 C 
ENDROOT
BRANCH   2   4
ATOM      4  C   UNL     1      33.087  -4.257  16.948  0.00  0.00    -0.006 A 
ATOM      5  C   UNL     1      32.594  -4.142  16.086  0.00  0.00    +0.009 A 
ATOM      6  C   UNL     1      31.976  -4.859  15.764  0.00  0.00    +0.001 A 
ATOM      7  C   UNL     1      31.850  -5.690  16.304  0.00  0.00    +0.000 A 
ATOM      8  C   UNL     1      32.343  -5.806  17.167  0.00  0.00    +0.001 A 
ATOM      9  C   UNL     1      32.961  -5.089  17.489  0.00  0.00    +0.009 A 
ENDBRANCH   2   4
BRANCH   3  10
ATOM     10  C   UNL     1      32.382  -2.752  18.061  0.00  0.00    -0.016 A 
ATOM     11  C   UNL     1      31.745  -2.249  17.477  0.00  0.00    +0.008 A 
ATOM     12  C   UNL     1      30.773  -2.213  17.711  0.00  0.00    +0.001 A 
ATOM     13  C   UNL     1      30.439  -2.681  18.530  0.00  0.00    +0.000 A 
ATOM     14  C   UNL     1      31.076  -3.184  19.114  0.00  0.00    +0.001 A 
ATOM     15  C   UNL     1      32.048  -3.220  18.879  0.00  0.00    +0.008 A 
ENDBRANCH   3  10
BRANCH   3  16
ATOM     16  C   UNL     1      33.972  -2.072  18.148  0.00  0.00    -0.016 A 
ATOM     17  C   UNL     1      34.193  -1.298  17.554  0.00  0.00    +0.012 A 
ATOM     18  C   UNL     1      34.812  -0.582  17.876  0.00  0.00    +0.046 A 
ATOM     19  C   UNL     1      35.210  -0.638  18.792  0.00  0.00    +0.121 A 
ATOM     20  C   UNL     1      34.988  -1.412  19.386  0.00  0.00    +0.046 A 
ATOM     21  C   UNL     1      34.370  -2.128  19.064  0.00  0.00    +0.012 A 
BRANCH  19  22
ATOM     22  O   UNL     1      35.829   0.078  19.114  0.00  0.00    -0.487 OA
BRANCH  22  23
ATOM     23  C   UNL     1      36.810   0.007  18.939  0.00  0.00    +0.279 C 
BRANCH  23  24
ATOM     24  C   UNL     1      37.375   0.831  18.914  0.00  0.00    +0.172 C 
BRANCH  24  25
ATOM     25  N   UNL     1      38.168   0.876  18.306  0.00  0.00    +0.219 N 
ATOM     26  O   UNL     1      38.469  -0.020  18.632  0.00  0.00    -0.775 OA
BRANCH  25  27
ATOM     27  C   UNL     1      37.867   1.772  17.980  0.00  0.00    +0.127 C 
ATOM     28  C   UNL     1      38.104   2.597  18.494  0.00  0.00    +0.060 C 
ENDBRANCH  25  27
BRANCH  25  29
ATOM     29  C   UNL     1      38.961   0.921  17.698  0.00  0.00    +0.127 C 
ATOM     30  C   UNL     1      39.443   0.083  17.442  0.00  0.00    +0.060 C 
ENDBRANCH  25  29
ENDBRANCH  24  25
ENDBRANCH  23  24
ENDBRANCH  22  23
ENDBRANCH  19  22
ENDBRANCH   3  16
TORSDOF 9
ENDMDL
MODEL 6
REMARK VINA RESULT:      -7.9     10.969     13.257
REMARK  Name = 3037789
REMARK  11 active torsions:
REMARK  status: ('A' for Active; 'I' for Inactive)
REMARK    1  A    between atoms: O_3  and  C_8
REMARK    2  A    between atoms: O_3  and  C_11
REMARK    3  A    between atoms: N_4  and  C_5
REMARK    4  A    between atoms: N_4  and  C_6
REMARK    5  A    between atoms: N_4  and  C_7
REMARK    6  A    between atoms: C_5  and  C_8
REMARK    7  A    between atoms: C_6  and  C_9
REMARK    8  A    between atoms: C_7  and  C_10
REMARK    9  A    between atoms: C_12  and  C_15
REMARK   10  A    between atoms: C_15  and  C_18
REMARK   11  A    between atoms: C_19  and  C_20
REMARK                            x       y       z     vdW  Elec       q    Type
REMARK                         _______ _______ _______ _____ _____    ______ ____
ROOT
ATOM      1 CL   UNL     1      35.955   2.401  16.752  0.00  0.00    -0.082 Cl
ATOM      2  C   UNL     1      36.499   1.582  16.930  0.00  0.00    +0.056 C 
ATOM      3  C   UNL     1      37.449   1.668  17.231  0.00  0.00    +0.008 C 
ENDROOT
BRANCH   2   4
ATOM      4  C   UNL     1      36.094   0.675  16.808  0.00  0.00    -0.006 A 
ATOM      5  C   UNL     1      36.167   0.210  15.926  0.00  0.00    +0.009 A 
ATOM      6  C   UNL     1      35.762  -0.696  15.804  0.00  0.00    +0.001 A 
ATOM      7  C   UNL     1      35.285  -1.137  16.564  0.00  0.00    +0.000 A 
ATOM      8  C   UNL     1      35.212  -0.672  17.446  0.00  0.00    +0.001 A 
ATOM      9  C   UNL     1      35.617   0.234  17.568  0.00  0.00    +0.009 A 
ENDBRANCH   2   4
BRANCH   3  10
ATOM     10  C   UNL     1      37.994   0.849  17.409  0.00  0.00    -0.016 A 
ATOM     11  C   UNL     1      38.545   0.446  16.679  0.00  0.00    +0.008 A 
ATOM     12  C   UNL     1      39.090  -0.373  16.857  0.00  0.00    +0.001 A 
ATOM     13  C   UNL     1      39.084  -0.790  17.766  0.00  0.00    +0.000 A 
ATOM     14  C   UNL     1      38.532  -0.387  18.497  0.00  0.00    +0.001 A 
ATOM     15  C   UNL     1      37.988   0.433  18.318  0.00  0.00    +0.008 A 
ENDBRANCH   3  10
BRANCH   3  16
ATOM     16  C   UNL     1      37.854   2.575  17.353  0.00  0.00    -0.016 A 
ATOM     17  C   UNL     1      37.920   2.973  18.268  0.00  0.00    +0.012 A 
ATOM     18  C   UNL     1      38.325   3.880  18.390  0.00  0.00    +0.046 A 
ATOM     19  C   UNL     1      38.664   4.387  17.598  0.00  0.00    +0.121 A 
ATOM     20  C   UNL     1      38.598   3.988  16.683  0.00  0.00    +0.046 A 
ATOM     21  C   UNL     1      38.193   3.082  16.561  0.00  0.00    +0.012 A 
BRANCH  19  22
ATOM     22  O   UNL     1      39.069   5.293  17.720  0.00  0.00    -0.487 OA
BRANCH  22  23
ATOM     23  C   UNL     1      39.036   5.739  18.614  0.00  0.00    +0.279 C 
BRANCH  23  24
ATOM     24  C   UNL     1      39.673   6.479  18.828  0.00  0.00    +0.172 C 
BRANCH  24  25
ATOM     25  N   UNL     1      39.552   7.018  19.662  0.00  0.00    +0.219 N 
ATOM     26  O   UNL     1      38.766   7.479  19.251  0.00  0.00    -0.775 OA
BRANCH  25  27
ATOM     27  C   UNL     1      40.339   6.557  20.073  0.00  0.00    +0.127 C 
ATOM     28  C   UNL     1      41.243   6.983  20.035  0.00  0.00    +0.060 C 
ENDBRANCH  25  27
BRANCH  25  29
ATOM     29  C   UNL     1      39.432   7.556  20.495  0.00  0.00    +0.127 C 
ATOM     30  C   UNL     1      38.665   8.193  20.573  0.00  0.00    +0.060 C 
ENDBRANCH  25  29
ENDBRANCH  24  25
ENDBRANCH  23  24
ENDBRANCH  22  23
ENDBRANCH  19  22
ENDBRANCH   3  16
TORSDOF 9
ENDMDL
MODEL 7
REMARK VINA RESULT:      -7.9      9.989     12.753
REMARK  Name = 3037789
REMARK  11 active torsions:
REMARK  status: ('A' for Active; 'I' for Inactive)
REMARK    1  A    between atoms: O_3  and  C_8
REMARK    2  A    between atoms: O_3  and  C_11
REMARK    3  A    between atoms: N_4  and  C_5
REMARK    4  A    between atoms: N_4  and  C_6
REMARK    5  A    between atoms: N_4  and  C_7
REMARK    6  A    between atoms: C_5  and  C_8
REMARK    7  A    between atoms: C_6  and  C_9
REMARK    8  A    between atoms: C_7  and  C_10
REMARK    9  A    between atoms: C_12  and  C_15
REMARK   10  A    between atoms: C_15  and  C_18
REMARK   11  A    between atoms: C_19  and  C_20
REMARK                            x       y       z     vdW  Elec       q    Type
REMARK                         _______ _______ _______ _____ _____    ______ ____
ROOT
ATOM      1 CL   UNL     1      39.502   0.001  17.881  0.00  0.00    -0.082 Cl
ATOM      2  C   UNL     1      38.594  -0.407  17.970  0.00  0.00    +0.056 C 
ATOM      3  C   UNL     1      37.782   0.176  17.976  0.00  0.00    +0.008 C 
ENDROOT
BRANCH   2   4
ATOM      4  C   UNL     1      38.497  -1.399  18.051  0.00  0.00    -0.006 A 
ATOM      5  C   UNL     1      38.406  -1.962  17.229  0.00  0.00    +0.009 A 
ATOM      6  C   UNL     1      38.310  -2.954  17.310  0.00  0.00    +0.001 A 
ATOM      7  C   UNL     1      38.304  -3.383  18.213  0.00  0.00    +0.000 A 
ATOM      8  C   UNL     1      38.395  -2.821  19.035  0.00  0.00    +0.001 A 
ATOM      9  C   UNL     1      38.491  -1.829  18.954  0.00  0.00    +0.009 A 
ENDBRANCH   2   4
BRANCH   3  10
ATOM     10  C   UNL     1      36.873  -0.232  18.065  0.00  0.00    -0.016 A 
ATOM     11  C   UNL     1      36.474  -0.374  18.971  0.00  0.00    +0.008 A 
ATOM     12  C   UNL     1      35.566  -0.782  19.059  0.00  0.00    +0.001 A 
ATOM     13  C   UNL     1      35.056  -1.049  18.241  0.00  0.00    +0.000 A 
ATOM     14  C   UNL     1      35.455  -0.907  17.335  0.00  0.00    +0.001 A 
ATOM     15  C   UNL     1      36.363  -0.499  17.247  0.00  0.00    +0.008 A 
ENDBRANCH   3  10
BRANCH   3  16
ATOM     16  C   UNL     1      37.878   1.168  17.895  0.00  0.00    -0.016 A 
ATOM     17  C   UNL     1      37.937   1.734  18.718  0.00  0.00    +0.012 A 
ATOM     18  C   UNL     1      38.033   2.726  18.636  0.00  0.00    +0.046 A 
ATOM     19  C   UNL     1      38.072   3.152  17.733  0.00  0.00    +0.121 A 
ATOM     20  C   UNL     1      38.013   2.586  16.910  0.00  0.00    +0.046 A 
ATOM     21  C   UNL     1      37.917   1.594  16.991  0.00  0.00    +0.012 A 
BRANCH  19  22
ATOM     22  O   UNL     1      38.168   4.144  17.651  0.00  0.00    -0.487 OA
BRANCH  22  23
ATOM     23  C   UNL     1      38.769   4.641  18.277  0.00  0.00    +0.279 C 
BRANCH  23  24
ATOM     24  C   UNL     1      38.983   5.603  18.107  0.00  0.00    +0.172 C 
BRANCH  24  25
ATOM     25  N   UNL     1      39.252   6.197  18.866  0.00  0.00    +0.219 N 
ATOM     26  O   UNL     1      40.043   5.611  19.043  0.00  0.00    -0.775 OA
BRANCH  25  27
ATOM     27  C   UNL     1      38.461   6.782  18.688  0.00  0.00    +0.127 C 
ATOM     28  C   UNL     1      38.562   7.600  18.121  0.00  0.00    +0.060 C 
ENDBRANCH  25  27
BRANCH  25  29
ATOM     29  C   UNL     1      39.522   6.791  19.624  0.00  0.00    +0.127 C 
ATOM     30  C   UNL     1      40.351   6.591  20.145  0.00  0.00    +0.060 C 
ENDBRANCH  25  29
ENDBRANCH  24  25
ENDBRANCH  23  24
ENDBRANCH  22  23
ENDBRANCH  19  22
ENDBRANCH   3  16
TORSDOF 9
ENDMDL
MODEL 8
REMARK VINA RESULT:      -7.7     11.648     14.194
REMARK  Name = 3037789
REMARK  11 active torsions:
REMARK  status: ('A' for Active; 'I' for Inactive)
REMARK    1  A    between atoms: O_3  and  C_8
REMARK    2  A    between atoms: O_3  and  C_11
REMARK    3  A    between atoms: N_4  and  C_5
REMARK    4  A    between atoms: N_4  and  C_6
REMARK    5  A    between atoms: N_4  and  C_7
REMARK    6  A    between atoms: C_5  and  C_8
REMARK    7  A    between atoms: C_6  and  C_9
REMARK    8  A    between atoms: C_7  and  C_10
REMARK    9  A    between atoms: C_12  and  C_15
REMARK   10  A    between atoms: C_15  and  C_18
REMARK   11  A    between atoms: C_19  and  C_20
REMARK                            x       y       z     vdW  Elec       q    Type
REMARK                         _______ _______ _______ _____ _____    ______ ____
ROOT
ATOM      1 CL   UNL     1      37.889   7.242  18.460  0.00  0.00    -0.082 Cl
ATOM      2  C   UNL     1      38.832   7.253  18.793  0.00  0.00    +0.056 C 
ATOM      3  C   UNL     1      39.432   6.472  18.622  0.00  0.00    +0.008 C 
ENDROOT
BRANCH   2   4
ATOM      4  C   UNL     1      39.175   8.046  19.297  0.00  0.00    -0.006 A 
ATOM      5  C   UNL     1      39.626   8.792  18.809  0.00  0.00    +0.009 A 
ATOM      6  C   UNL     1      39.969   9.585  19.313  0.00  0.00    +0.001 A 
ATOM      7  C   UNL     1      39.861   9.631  20.306  0.00  0.00    +0.000 A 
ATOM      8  C   UNL     1      39.409   8.884  20.795  0.00  0.00    +0.001 A 
ATOM      9  C   UNL     1      39.067   8.092  20.290  0.00  0.00    +0.009 A 
ENDBRANCH   2   4
BRANCH   3  10
ATOM     10  C   UNL     1      40.375   6.483  18.955  0.00  0.00    -0.016 A 
ATOM     11  C   UNL     1      40.580   6.186  19.887  0.00  0.00    +0.008 A 
ATOM     12  C   UNL     1      41.523   6.197  20.220  0.00  0.00    +0.001 A 
ATOM     13  C   UNL     1      42.261   6.505  19.620  0.00  0.00    +0.000 A 
ATOM     14  C   UNL     1      42.056   6.803  18.688  0.00  0.00    +0.001 A 
ATOM     15  C   UNL     1      41.113   6.791  18.355  0.00  0.00    +0.008 A 
ENDBRANCH   3  10
BRANCH   3  16
ATOM     16  C   UNL     1      39.089   5.679  18.118  0.00  0.00    -0.016 A 
ATOM     17  C   UNL     1      38.734   4.887  18.613  0.00  0.00    +0.012 A 
ATOM     18  C   UNL     1      38.391   4.094  18.109  0.00  0.00    +0.046 A 
ATOM     19  C   UNL     1      38.404   4.094  17.109  0.00  0.00    +0.121 A 
ATOM     20  C   UNL     1      38.759   4.886  16.613  0.00  0.00    +0.046 A 
ATOM     21  C   UNL     1      39.102   5.679  17.118  0.00  0.00    +0.012 A 
BRANCH  19  22
ATOM     22  O   UNL     1      38.061   3.301  16.605  0.00  0.00    -0.487 OA
BRANCH  22  23
ATOM     23  C   UNL     1      37.169   2.911  16.834  0.00  0.00    +0.279 C 
BRANCH  23  24
ATOM     24  C   UNL     1      36.626   2.458  16.127  0.00  0.00    +0.172 C 
BRANCH  24  25
ATOM     25  N   UNL     1      35.788   1.972  16.376  0.00  0.00    +0.219 N 
ATOM     26  O   UNL     1      36.333   1.240  16.784  0.00  0.00    -0.775 OA
BRANCH  25  27
ATOM     27  C   UNL     1      35.242   2.703  15.967  0.00  0.00    +0.127 C 
ATOM     28  C   UNL     1      34.962   2.643  15.009  0.00  0.00    +0.060 C 
ENDBRANCH  25  27
BRANCH  25  29
ATOM     29  C   UNL     1      34.950   1.486  16.624  0.00  0.00    +0.127 C 
ATOM     30  C   UNL     1      35.003   0.625  17.130  0.00  0.00    +0.060 C 
ENDBRANCH  25  29
ENDBRANCH  24  25
ENDBRANCH  23  24
ENDBRANCH  22  23
ENDBRANCH  19  22
ENDBRANCH   3  16
TORSDOF 9
ENDMDL
MODEL 9
REMARK VINA RESULT:      -7.7      5.417     10.157
REMARK  Name = 3037789
REMARK  11 active torsions:
REMARK  status: ('A' for Active; 'I' for Inactive)
REMARK    1  A    between atoms: O_3  and  C_8
REMARK    2  A    between atoms: O_3  and  C_11
REMARK    3  A    between atoms: N_4  and  C_5
REMARK    4  A    between atoms: N_4  and  C_6
REMARK    5  A    between atoms: N_4  and  C_7
REMARK    6  A    between atoms: C_5  and  C_8
REMARK    7  A    between atoms: C_6  and  C_9
REMARK    8  A    between atoms: C_7  and  C_10
REMARK    9  A    between atoms: C_12  and  C_15
REMARK   10  A    between atoms: C_15  and  C_18
REMARK   11  A    between atoms: C_19  and  C_20
REMARK                            x       y       z     vdW  Elec       q    Type
REMARK                         _______ _______ _______ _____ _____    ______ ____
ROOT
ATOM      1 CL   UNL     1      34.364  -1.159  17.414  0.00  0.00    -0.082 Cl
ATOM      2  C   UNL     1      35.170  -0.569  17.478  0.00  0.00    +0.056 C 
ATOM      3  C   UNL     1      35.830  -0.702  18.217  0.00  0.00    +0.008 C 
ENDROOT
BRANCH   2   4
ATOM      4  C   UNL     1      35.315   0.153  16.802  0.00  0.00    -0.006 A 
ATOM      5  C   UNL     1      34.945   1.069  16.961  0.00  0.00    +0.009 A 
ATOM      6  C   UNL     1      35.090   1.791  16.285  0.00  0.00    +0.001 A 
ATOM      7  C   UNL     1      35.604   1.599  15.450  0.00  0.00    +0.000 A 
ATOM      8  C   UNL     1      35.974   0.683  15.290  0.00  0.00    +0.001 A 
ATOM      9  C   UNL     1      35.829  -0.039  15.966  0.00  0.00    +0.009 A 
ENDBRANCH   2   4
BRANCH   3  10
ATOM     10  C   UNL     1      36.635  -0.113  18.280  0.00  0.00    -0.016 A 
ATOM     11  C   UNL     1      36.598   0.728  18.820  0.00  0.00    +0.008 A 
ATOM     12  C   UNL     1      37.403   1.318  18.883  0.00  0.00    +0.001 A 
ATOM     13  C   UNL     1      38.246   1.066  18.406  0.00  0.00    +0.000 A 
ATOM     14  C   UNL     1      38.283   0.226  17.866  0.00  0.00    +0.001 A 
ATOM     15  C   UNL     1      37.477  -0.364  17.803  0.00  0.00    +0.008 A 
ENDBRANCH   3  10
BRANCH   3  16
ATOM     16  C   UNL     1      35.685  -1.425  18.893  0.00  0.00    -0.016 A 
ATOM     17  C   UNL     1      36.095  -2.327  18.756  0.00  0.00    +0.012 A 
ATOM     18  C   UNL     1      35.950  -3.049  19.432  0.00  0.00    +0.046 A 
ATOM     19  C   UNL     1      35.395  -2.870  20.244  0.00  0.00    +0.121 A 
ATOM     20  C   UNL     1      34.985  -1.968  20.381  0.00  0.00    +0.046 A 
ATOM     21  C   UNL     1      35.130  -1.246  19.705  0.00  0.00    +0.012 A 
BRANCH  19  22
ATOM     22  O   UNL     1      35.250  -3.592  20.920  0.00  0.00    -0.487 OA
BRANCH  22  23
ATOM     23  C   UNL     1      34.708  -3.409  21.740  0.00  0.00    +0.279 C 
BRANCH  23  24
ATOM     24  C   UNL     1      34.032  -4.076  22.053  0.00  0.00    +0.172 C 
BRANCH  24  25
ATOM     25  N   UNL     1      33.474  -3.883  22.860  0.00  0.00    +0.219 N 
ATOM     26  O   UNL     1      34.287  -3.953  23.439  0.00  0.00    -0.775 OA
BRANCH  25  27
ATOM     27  C   UNL     1      32.662  -3.812  22.281  0.00  0.00    +0.127 C 
ATOM     28  C   UNL     1      32.230  -4.640  21.923  0.00  0.00    +0.060 C 
ENDBRANCH  25  27
BRANCH  25  29
ATOM     29  C   UNL     1      32.916  -3.689  23.667  0.00  0.00    +0.127 C 
ATOM     30  C   UNL     1      33.352  -3.392  24.517  0.00  0.00    +0.060 C 
ENDBRANCH  25  29
ENDBRANCH  24  25
ENDBRANCH  23  24
ENDBRANCH  22  23
ENDBRANCH  19  22
ENDBRANCH   3  16
TORSDOF 9
ENDMDL
MODEL 10
REMARK VINA RESULT:      -7.6      3.019      8.692
REMARK  Name = 3037789
REMARK  11 active torsions:
REMARK  status: ('A' for Active; 'I' for Inactive)
REMARK    1  A    between atoms: O_3  and  C_8
REMARK    2  A    between atoms: O_3  and  C_11
REMARK    3  A    between atoms: N_4  and  C_5
REMARK    4  A    between atoms: N_4  and  C_6
REMARK    5  A    between atoms: N_4  and  C_7
REMARK    6  A    between atoms: C_5  and  C_8
REMARK    7  A    between atoms: C_6  and  C_9
REMARK    8  A    between atoms: C_7  and  C_10
REMARK    9  A    between atoms: C_12  and  C_15
REMARK   10  A    between atoms: C_15  and  C_18
REMARK   11  A    between atoms: C_19  and  C_20
REMARK                            x       y       z     vdW  Elec       q    Type
REMARK                         _______ _______ _______ _____ _____    ______ ____
ROOT
ATOM      1 CL   UNL     1      33.700  -5.158  20.500  0.00  0.00    -0.082 Cl
ATOM      2  C   UNL     1      34.264  -4.420  20.128  0.00  0.00    +0.056 C 
ATOM      3  C   UNL     1      34.375  -3.569  20.641  0.00  0.00    +0.008 C 
ENDROOT
BRANCH   2   4
ATOM      4  C   UNL     1      34.715  -4.533  19.243  0.00  0.00    -0.006 A 
ATOM      5  C   UNL     1      34.246  -4.256  18.404  0.00  0.00    +0.009 A 
ATOM      6  C   UNL     1      34.698  -4.369  17.519  0.00  0.00    +0.001 A 
ATOM      7  C   UNL     1      35.617  -4.759  17.473  0.00  0.00    +0.000 A 
ATOM      8  C   UNL     1      36.086  -5.036  18.312  0.00  0.00    +0.001 A 
ATOM      9  C   UNL     1      35.635  -4.923  19.197  0.00  0.00    +0.009 A 
ENDBRANCH   2   4
BRANCH   3  10
ATOM     10  C   UNL     1      34.939  -2.831  20.269  0.00  0.00    -0.016 A 
ATOM     11  C   UNL     1      35.918  -2.799  20.471  0.00  0.00    +0.008 A 
ATOM     12  C   UNL     1      36.481  -2.061  20.099  0.00  0.00    +0.001 A 
ATOM     13  C   UNL     1      36.065  -1.356  19.525  0.00  0.00    +0.000 A 
ATOM     14  C   UNL     1      35.086  -1.388  19.323  0.00  0.00    +0.001 A 
ATOM     15  C   UNL     1      34.523  -2.126  19.695  0.00  0.00    +0.008 A 
ENDBRANCH   3  10
BRANCH   3  16
ATOM     16  C   UNL     1      33.924  -3.456  21.526  0.00  0.00    -0.016 A 
ATOM     17  C   UNL     1      33.023  -3.025  21.577  0.00  0.00    +0.012 A 
ATOM     18  C   UNL     1      32.572  -2.912  22.462  0.00  0.00    +0.046 A 
ATOM     19  C   UNL     1      33.022  -3.230  23.297  0.00  0.00    +0.121 A 
ATOM     20  C   UNL     1      33.923  -3.661  23.246  0.00  0.00    +0.046 A 
ATOM     21  C   UNL     1      34.374  -3.774  22.361  0.00  0.00    +0.012 A 
BRANCH  19  22
ATOM     22  O   UNL     1      32.570  -3.117  24.182  0.00  0.00    -0.487 OA
BRANCH  22  23
ATOM     23  C   UNL     1      32.506  -2.210  24.598  0.00  0.00    +0.279 C 
BRANCH  23  24
ATOM     24  C   UNL     1      32.159  -2.111  25.531  0.00  0.00    +0.172 C 
BRANCH  24  25
ATOM     25  N   UNL     1      32.024  -1.200  25.920  0.00  0.00    +0.219 N 
ATOM     26  O   UNL     1      32.996  -1.003  25.798  0.00  0.00    -0.775 OA
BRANCH  25  27
ATOM     27  C   UNL     1      31.051  -1.397  26.042  0.00  0.00    +0.127 C 
ATOM     28  C   UNL     1      30.724  -1.789  26.901  0.00  0.00    +0.060 C 
ENDBRANCH  25  27
BRANCH  25  29
ATOM     29  C   UNL     1      31.888  -0.289  26.309  0.00  0.00    +0.127 C 
ATOM     30  C   UNL     1      32.586   0.417  26.186  0.00  0.00    +0.060 C 
ENDBRANCH  25  29
ENDBRANCH  24  25
ENDBRANCH  23  24
ENDBRANCH  22  23
ENDBRANCH  19  22
ENDBRANCH   3  16
TORSDOF 9
ENDMDL
