MODEL 1
REMARK VINA RESULT:      -9.5      0.000      0.000
REMARK  Name = 194701
REMARK  11 active torsions:
REMARK  status: ('A' for Active; 'I' for Inactive)
REMARK    1  A    between atoms: O_3  and  C_8
REMARK    2  A    between atoms: O_3  and  C_11
REMARK    3  A    between atoms: N_4  and  C_5
REMARK    4  A    between atoms: N_4  and  C_6
REMARK    5  A    between atoms: N_4  and  C_7
REMARK    6  A    between atoms: C_5  and  C_8
REMARK    7  A    between atoms: C_6  and  C_9
REMARK    8  A    between atoms: C_7  and  C_10
REMARK    9  A    between atoms: C_12  and  C_15
REMARK   10  A    between atoms: C_15  and  C_18
REMARK   11  A    between atoms: C_19  and  C_20
REMARK                            x       y       z     vdW  Elec       q    Type
REMARK                         _______ _______ _______ _____ _____    ______ ____
ROOT
ATOM      1 CL   UNL     1      28.444  -2.377  25.999  0.00  0.00    -0.082 Cl
ATOM      2  C   UNL     1      28.573  -1.752  26.768  0.00  0.00    +0.056 C 
ATOM      3  C   UNL     1      29.469  -1.339  26.931  0.00  0.00    +0.008 C 
ENDROOT
BRANCH   2   4
ATOM      4  C   UNL     1      27.807  -1.540  27.375  0.00  0.00    -0.006 A 
ATOM      5  C   UNL     1      27.638  -2.105  28.182  0.00  0.00    +0.009 A 
ATOM      6  C   UNL     1      26.872  -1.893  28.789  0.00  0.00    +0.001 A 
ATOM      7  C   UNL     1      26.275  -1.116  28.588  0.00  0.00    +0.000 A 
ATOM      8  C   UNL     1      26.445  -0.551  27.781  0.00  0.00    +0.001 A 
ATOM      9  C   UNL     1      27.211  -0.763  27.174  0.00  0.00    +0.009 A 
ENDBRANCH   2   4
BRANCH   3  10
ATOM     10  C   UNL     1      29.599  -0.714  27.701  0.00  0.00    -0.016 A 
ATOM     11  C   UNL     1      29.438   0.266  27.582  0.00  0.00    +0.008 A 
ATOM     12  C   UNL     1      29.568   0.891  28.351  0.00  0.00    +0.001 A 
ATOM     13  C   UNL     1      29.859   0.536  29.240  0.00  0.00    +0.000 A 
ATOM     14  C   UNL     1      30.020  -0.443  29.359  0.00  0.00    +0.001 A 
ATOM     15  C   UNL     1      29.890  -1.068  28.589  0.00  0.00    +0.008 A 
ENDBRANCH   3  10
BRANCH   3  16
ATOM     16  C   UNL     1      30.235  -1.551  26.324  0.00  0.00    -0.016 A 
ATOM     17  C   UNL     1      30.831  -2.329  26.524  0.00  0.00    +0.012 A 
ATOM     18  C   UNL     1      31.597  -2.541  25.917  0.00  0.00    +0.046 A 
ATOM     19  C   UNL     1      31.768  -1.975  25.111  0.00  0.00    +0.121 A 
ATOM     20  C   UNL     1      31.173  -1.196  24.912  0.00  0.00    +0.046 A 
ATOM     21  C   UNL     1      30.406  -0.984  25.518  0.00  0.00    +0.012 A 
BRANCH  19  22
ATOM     22  O   UNL     1      32.534  -2.187  24.504  0.00  0.00    -0.487 OA
BRANCH  22  23
ATOM     23  C   UNL     1      32.381  -2.722  23.673  0.00  0.00    +0.279 C 
BRANCH  23  24
ATOM     24  C   UNL     1      33.147  -2.937  23.069  0.00  0.00    +0.172 C 
BRANCH  24  25
ATOM     25  N   UNL     1      32.993  -3.468  22.235  0.00  0.00    +0.219 N 
ATOM     26  O   UNL     1      32.339  -2.781  21.919  0.00  0.00    -0.775 OA
BRANCH  25  27
ATOM     27  C   UNL     1      33.647  -4.155  22.552  0.00  0.00    +0.127 C 
ATOM     28  C   UNL     1      34.620  -4.052  22.344  0.00  0.00    +0.060 C 
ENDBRANCH  25  27
BRANCH  25  29
ATOM     29  C   UNL     1      32.839  -3.999  21.402  0.00  0.00    +0.127 C 
ATOM     30  C   UNL     1      32.173  -3.685  20.725  0.00  0.00    +0.060 C 
ENDBRANCH  25  29
ENDBRANCH  24  25
ENDBRANCH  23  24
ENDBRANCH  22  23
ENDBRANCH  19  22
ENDBRANCH   3  16
TORSDOF 9
ENDMDL
MODEL 2
REMARK VINA RESULT:      -9.4      2.513      3.523
REMARK  Name = 194701
REMARK  11 active torsions:
REMARK  status: ('A' for Active; 'I' for Inactive)
REMARK    1  A    between atoms: O_3  and  C_8
REMARK    2  A    between atoms: O_3  and  C_11
REMARK    3  A    between atoms: N_4  and  C_5
REMARK    4  A    between atoms: N_4  and  C_6
REMARK    5  A    between atoms: N_4  and  C_7
REMARK    6  A    between atoms: C_5  and  C_8
REMARK    7  A    between atoms: C_6  and  C_9
REMARK    8  A    between atoms: C_7  and  C_10
REMARK    9  A    between atoms: C_12  and  C_15
REMARK   10  A    between atoms: C_15  and  C_18
REMARK   11  A    between atoms: C_19  and  C_20
REMARK                            x       y       z     vdW  Elec       q    Type
REMARK                         _______ _______ _______ _____ _____    ______ ____
ROOT
ATOM      1 CL   UNL     1      30.713  -1.394  26.523  0.00  0.00    -0.082 Cl
ATOM      2  C   UNL     1      31.457  -0.758  26.727  0.00  0.00    +0.056 C 
ATOM      3  C   UNL     1      32.245  -0.697  26.115  0.00  0.00    +0.008 C 
ENDROOT
BRANCH   2   4
ATOM      4  C   UNL     1      31.412  -0.182  27.543  0.00  0.00    -0.006 A 
ATOM      5  C   UNL     1      30.998   0.727  27.492  0.00  0.00    +0.009 A 
ATOM      6  C   UNL     1      30.953   1.303  28.309  0.00  0.00    +0.001 A 
ATOM      7  C   UNL     1      31.323   0.970  29.176  0.00  0.00    +0.000 A 
ATOM      8  C   UNL     1      31.737   0.061  29.227  0.00  0.00    +0.001 A 
ATOM      9  C   UNL     1      31.782  -0.515  28.411  0.00  0.00    +0.009 A 
ENDBRANCH   2   4
BRANCH   3  10
ATOM     10  C   UNL     1      32.989  -0.060  26.319  0.00  0.00    -0.016 A 
ATOM     11  C   UNL     1      32.963   0.872  25.957  0.00  0.00    +0.008 A 
ATOM     12  C   UNL     1      33.707   1.508  26.161  0.00  0.00    +0.001 A 
ATOM     13  C   UNL     1      34.476   1.213  26.728  0.00  0.00    +0.000 A 
ATOM     14  C   UNL     1      34.502   0.281  27.090  0.00  0.00    +0.001 A 
ATOM     15  C   UNL     1      33.759  -0.355  26.886  0.00  0.00    +0.008 A 
ENDBRANCH   3  10
BRANCH   3  16
ATOM     16  C   UNL     1      32.290  -1.273  25.299  0.00  0.00    -0.016 A 
ATOM     17  C   UNL     1      32.798  -2.134  25.321  0.00  0.00    +0.012 A 
ATOM     18  C   UNL     1      32.843  -2.710  24.505  0.00  0.00    +0.046 A 
ATOM     19  C   UNL     1      32.380  -2.424  23.666  0.00  0.00    +0.121 A 
ATOM     20  C   UNL     1      31.872  -1.563  23.643  0.00  0.00    +0.046 A 
ATOM     21  C   UNL     1      31.827  -0.987  24.460  0.00  0.00    +0.012 A 
BRANCH  19  22
ATOM     22  O   UNL     1      32.425  -3.000  22.850  0.00  0.00    -0.487 OA
BRANCH  22  23
ATOM     23  C   UNL     1      33.140  -2.847  22.168  0.00  0.00    +0.279 C 
BRANCH  23  24
ATOM     24  C   UNL     1      33.104  -3.322  21.289  0.00  0.00    +0.172 C 
BRANCH  24  25
ATOM     25  N   UNL     1      33.623  -2.973  20.509  0.00  0.00    +0.219 N 
ATOM     26  O   UNL     1      34.425  -2.857  21.095  0.00  0.00    -0.775 OA
BRANCH  25  27
ATOM     27  C   UNL     1      32.820  -3.088  19.924  0.00  0.00    +0.127 C 
ATOM     28  C   UNL     1      32.719  -3.916  19.372  0.00  0.00    +0.060 C 
ENDBRANCH  25  27
BRANCH  25  29
ATOM     29  C   UNL     1      34.142  -2.623  19.730  0.00  0.00    +0.127 C 
ATOM     30  C   UNL     1      34.901  -1.990  19.878  0.00  0.00    +0.060 C 
ENDBRANCH  25  29
ENDBRANCH  24  25
ENDBRANCH  23  24
ENDBRANCH  22  23
ENDBRANCH  19  22
ENDBRANCH   3  16
TORSDOF 9
ENDMDL
MODEL 3
REMARK VINA RESULT:      -8.1      3.361      8.906
REMARK  Name = 194701
REMARK  11 active torsions:
REMARK  status: ('A' for Active; 'I' for Inactive)
REMARK    1  A    between atoms: O_3  and  C_8
REMARK    2  A    between atoms: O_3  and  C_11
REMARK    3  A    between atoms: N_4  and  C_5
REMARK    4  A    between atoms: N_4  and  C_6
REMARK    5  A    between atoms: N_4  and  C_7
REMARK    6  A    between atoms: C_5  and  C_8
REMARK    7  A    between atoms: C_6  and  C_9
REMARK    8  A    between atoms: C_7  and  C_10
REMARK    9  A    between atoms: C_12  and  C_15
REMARK   10  A    between atoms: C_15  and  C_18
REMARK   11  A    between atoms: C_19  and  C_20
REMARK                            x       y       z     vdW  Elec       q    Type
REMARK                         _______ _______ _______ _____ _____    ______ ____
ROOT
ATOM      1 CL   UNL     1      34.026  -4.832  18.963  0.00  0.00    -0.082 Cl
ATOM      2  C   UNL     1      33.323  -4.317  18.473  0.00  0.00    +0.056 C 
ATOM      3  C   UNL     1      32.762  -3.648  18.961  0.00  0.00    +0.008 C 
ENDROOT
BRANCH   2   4
ATOM      4  C   UNL     1      33.181  -4.471  17.495  0.00  0.00    -0.006 A 
ATOM      5  C   UNL     1      33.685  -3.927  16.825  0.00  0.00    +0.009 A 
ATOM      6  C   UNL     1      33.543  -4.081  15.847  0.00  0.00    +0.001 A 
ATOM      7  C   UNL     1      32.896  -4.778  15.540  0.00  0.00    +0.000 A 
ATOM      8  C   UNL     1      32.391  -5.322  16.210  0.00  0.00    +0.001 A 
ATOM      9  C   UNL     1      32.533  -5.169  17.188  0.00  0.00    +0.009 A 
ENDBRANCH   2   4
BRANCH   3  10
ATOM     10  C   UNL     1      32.059  -3.133  18.471  0.00  0.00    -0.016 A 
ATOM     11  C   UNL     1      32.301  -2.293  17.985  0.00  0.00    +0.008 A 
ATOM     12  C   UNL     1      31.598  -1.778  17.495  0.00  0.00    +0.001 A 
ATOM     13  C   UNL     1      30.652  -2.103  17.491  0.00  0.00    +0.000 A 
ATOM     14  C   UNL     1      30.410  -2.943  17.976  0.00  0.00    +0.001 A 
ATOM     15  C   UNL     1      31.113  -3.458  18.466  0.00  0.00    +0.008 A 
ENDBRANCH   3  10
BRANCH   3  16
ATOM     16  C   UNL     1      32.904  -3.495  19.939  0.00  0.00    -0.016 A 
ATOM     17  C   UNL     1      32.324  -3.959  20.608  0.00  0.00    +0.012 A 
ATOM     18  C   UNL     1      32.466  -3.805  21.585  0.00  0.00    +0.046 A 
ATOM     19  C   UNL     1      33.189  -3.187  21.894  0.00  0.00    +0.121 A 
ATOM     20  C   UNL     1      33.769  -2.723  21.226  0.00  0.00    +0.046 A 
ATOM     21  C   UNL     1      33.627  -2.877  20.248  0.00  0.00    +0.012 A 
BRANCH  19  22
ATOM     22  O   UNL     1      33.331  -3.033  22.872  0.00  0.00    -0.487 OA
BRANCH  22  23
ATOM     23  C   UNL     1      32.658  -2.515  23.400  0.00  0.00    +0.279 C 
BRANCH  23  24
ATOM     24  C   UNL     1      32.763  -2.423  24.390  0.00  0.00    +0.172 C 
BRANCH  24  25
ATOM     25  N   UNL     1      32.034  -2.006  24.933  0.00  0.00    +0.219 N 
ATOM     26  O   UNL     1      32.023  -1.220  24.316  0.00  0.00    -0.775 OA
BRANCH  25  27
ATOM     27  C   UNL     1      32.044  -2.793  25.551  0.00  0.00    +0.127 C 
ATOM     28  C   UNL     1      32.650  -2.796  26.346  0.00  0.00    +0.060 C 
ENDBRANCH  25  27
BRANCH  25  29
ATOM     29  C   UNL     1      31.305  -1.590  25.477  0.00  0.00    +0.127 C 
ATOM     30  C   UNL     1      30.506  -1.194  25.022  0.00  0.00    +0.060 C 
ENDBRANCH  25  29
ENDBRANCH  24  25
ENDBRANCH  23  24
ENDBRANCH  22  23
ENDBRANCH  19  22
ENDBRANCH   3  16
TORSDOF 9
ENDMDL
MODEL 4
REMARK VINA RESULT:      -8.0     10.939     13.251
REMARK  Name = 194701
REMARK  11 active torsions:
REMARK  status: ('A' for Active; 'I' for Inactive)
REMARK    1  A    between atoms: O_3  and  C_8
REMARK    2  A    between atoms: O_3  and  C_11
REMARK    3  A    between atoms: N_4  and  C_5
REMARK    4  A    between atoms: N_4  and  C_6
REMARK    5  A    between atoms: N_4  and  C_7
REMARK    6  A    between atoms: C_5  and  C_8
REMARK    7  A    between atoms: C_6  and  C_9
REMARK    8  A    between atoms: C_7  and  C_10
REMARK    9  A    between atoms: C_12  and  C_15
REMARK   10  A    between atoms: C_15  and  C_18
REMARK   11  A    between atoms: C_19  and  C_20
REMARK                            x       y       z     vdW  Elec       q    Type
REMARK                         _______ _______ _______ _____ _____    ______ ____
ROOT
ATOM      1 CL   UNL     1      35.946   2.383  16.778  0.00  0.00    -0.082 Cl
ATOM      2  C   UNL     1      36.491   1.561  16.945  0.00  0.00    +0.056 C 
ATOM      3  C   UNL     1      37.445   1.645  17.232  0.00  0.00    +0.008 C 
ENDROOT
BRANCH   2   4
ATOM      4  C   UNL     1      36.082   0.657  16.825  0.00  0.00    -0.006 A 
ATOM      5  C   UNL     1      36.144   0.193  15.941  0.00  0.00    +0.009 A 
ATOM      6  C   UNL     1      35.736  -0.711  15.820  0.00  0.00    +0.001 A 
ATOM      7  C   UNL     1      35.265  -1.153  16.584  0.00  0.00    +0.000 A 
ATOM      8  C   UNL     1      35.203  -0.689  17.468  0.00  0.00    +0.001 A 
ATOM      9  C   UNL     1      35.611   0.215  17.589  0.00  0.00    +0.009 A 
ENDBRANCH   2   4
BRANCH   3  10
ATOM     10  C   UNL     1      37.991   0.823  17.399  0.00  0.00    -0.016 A 
ATOM     11  C   UNL     1      38.527   0.420  16.658  0.00  0.00    +0.008 A 
ATOM     12  C   UNL     1      39.072  -0.402  16.825  0.00  0.00    +0.001 A 
ATOM     13  C   UNL     1      39.082  -0.820  17.733  0.00  0.00    +0.000 A 
ATOM     14  C   UNL     1      38.545  -0.416  18.475  0.00  0.00    +0.001 A 
ATOM     15  C   UNL     1      38.000   0.405  18.308  0.00  0.00    +0.008 A 
ENDBRANCH   3  10
BRANCH   3  16
ATOM     16  C   UNL     1      37.854   2.549  17.352  0.00  0.00    -0.016 A 
ATOM     17  C   UNL     1      38.188   3.057  16.558  0.00  0.00    +0.012 A 
ATOM     18  C   UNL     1      38.596   3.962  16.678  0.00  0.00    +0.046 A 
ATOM     19  C   UNL     1      38.672   4.359  17.593  0.00  0.00    +0.121 A 
ATOM     20  C   UNL     1      38.339   3.851  18.387  0.00  0.00    +0.046 A 
ATOM     21  C   UNL     1      37.930   2.946  18.267  0.00  0.00    +0.012 A 
BRANCH  19  22
ATOM     22  O   UNL     1      39.081   5.263  17.713  0.00  0.00    -0.487 OA
BRANCH  22  23
ATOM     23  C   UNL     1      39.037   5.718  18.603  0.00  0.00    +0.279 C 
BRANCH  23  24
ATOM     24  C   UNL     1      39.691   6.439  18.829  0.00  0.00    +0.172 C 
BRANCH  24  25
ATOM     25  N   UNL     1      39.563   6.989  19.654  0.00  0.00    +0.219 N 
ATOM     26  O   UNL     1      38.785   7.449  19.227  0.00  0.00    -0.775 OA
BRANCH  25  27
ATOM     27  C   UNL     1      40.342   6.529  20.081  0.00  0.00    +0.127 C 
ATOM     28  C   UNL     1      41.261   6.911  19.986  0.00  0.00    +0.060 C 
ENDBRANCH  25  27
BRANCH  25  29
ATOM     29  C   UNL     1      39.436   7.539  20.479  0.00  0.00    +0.127 C 
ATOM     30  C   UNL     1      38.671   8.180  20.540  0.00  0.00    +0.060 C 
ENDBRANCH  25  29
ENDBRANCH  24  25
ENDBRANCH  23  24
ENDBRANCH  22  23
ENDBRANCH  19  22
ENDBRANCH   3  16
TORSDOF 9
ENDMDL
MODEL 5
REMARK VINA RESULT:      -7.9     10.039     12.895
REMARK  Name = 194701
REMARK  11 active torsions:
REMARK  status: ('A' for Active; 'I' for Inactive)
REMARK    1  A    between atoms: O_3  and  C_8
REMARK    2  A    between atoms: O_3  and  C_11
REMARK    3  A    between atoms: N_4  and  C_5
REMARK    4  A    between atoms: N_4  and  C_6
REMARK    5  A    between atoms: N_4  and  C_7
REMARK    6  A    between atoms: C_5  and  C_8
REMARK    7  A    between atoms: C_6  and  C_9
REMARK    8  A    between atoms: C_7  and  C_10
REMARK    9  A    between atoms: C_12  and  C_15
REMARK   10  A    between atoms: C_15  and  C_18
REMARK   11  A    between atoms: C_19  and  C_20
REMARK                            x       y       z     vdW  Elec       q    Type
REMARK                         _______ _______ _______ _____ _____    ______ ____
ROOT
ATOM      1 CL   UNL     1      39.535   0.005  17.640  0.00  0.00    -0.082 Cl
ATOM      2  C   UNL     1      38.649  -0.438  17.773  0.00  0.00    +0.056 C 
ATOM      3  C   UNL     1      37.827   0.117  17.907  0.00  0.00    +0.008 C 
ENDROOT
BRANCH   2   4
ATOM      4  C   UNL     1      38.583  -1.436  17.773  0.00  0.00    -0.006 A 
ATOM      5  C   UNL     1      38.432  -1.927  16.915  0.00  0.00    +0.009 A 
ATOM      6  C   UNL     1      38.367  -2.925  16.914  0.00  0.00    +0.001 A 
ATOM      7  C   UNL     1      38.453  -3.432  17.772  0.00  0.00    +0.000 A 
ATOM      8  C   UNL     1      38.604  -2.941  18.630  0.00  0.00    +0.001 A 
ATOM      9  C   UNL     1      38.670  -1.943  18.630  0.00  0.00    +0.009 A 
ENDBRANCH   2   4
BRANCH   3  10
ATOM     10  C   UNL     1      36.941  -0.327  18.039  0.00  0.00    -0.016 A 
ATOM     11  C   UNL     1      36.633  -0.563  18.961  0.00  0.00    +0.008 A 
ATOM     12  C   UNL     1      35.747  -1.007  19.094  0.00  0.00    +0.001 A 
ATOM     13  C   UNL     1      35.168  -1.213  18.305  0.00  0.00    +0.000 A 
ATOM     14  C   UNL     1      35.475  -0.976  17.384  0.00  0.00    +0.001 A 
ATOM     15  C   UNL     1      36.362  -0.533  17.251  0.00  0.00    +0.008 A 
ENDBRANCH   3  10
BRANCH   3  16
ATOM     16  C   UNL     1      37.893   1.114  17.907  0.00  0.00    -0.016 A 
ATOM     17  C   UNL     1      37.885   1.616  17.042  0.00  0.00    +0.012 A 
ATOM     18  C   UNL     1      37.951   2.614  17.043  0.00  0.00    +0.046 A 
ATOM     19  C   UNL     1      38.023   3.110  17.908  0.00  0.00    +0.121 A 
ATOM     20  C   UNL     1      38.030   2.608  18.773  0.00  0.00    +0.046 A 
ATOM     21  C   UNL     1      37.965   1.610  18.772  0.00  0.00    +0.012 A 
BRANCH  19  22
ATOM     22  O   UNL     1      38.088   4.108  17.909  0.00  0.00    -0.487 OA
BRANCH  22  23
ATOM     23  C   UNL     1      38.977   4.551  18.022  0.00  0.00    +0.279 C 
BRANCH  23  24
ATOM     24  C   UNL     1      39.027   5.505  18.319  0.00  0.00    +0.172 C 
BRANCH  24  25
ATOM     25  N   UNL     1      39.916   5.950  18.424  0.00  0.00    +0.219 N 
ATOM     26  O   UNL     1      40.090   5.833  17.446  0.00  0.00    -0.775 OA
BRANCH  25  27
ATOM     27  C   UNL     1      39.741   6.068  19.402  0.00  0.00    +0.127 C 
ATOM     28  C   UNL     1      39.354   6.926  19.741  0.00  0.00    +0.060 C 
ENDBRANCH  25  27
BRANCH  25  29
ATOM     29  C   UNL     1      40.805   6.396  18.529  0.00  0.00    +0.127 C 
ATOM     30  C   UNL     1      41.471   6.364  17.783  0.00  0.00    +0.060 C 
ENDBRANCH  25  29
ENDBRANCH  24  25
ENDBRANCH  23  24
ENDBRANCH  22  23
ENDBRANCH  19  22
ENDBRANCH   3  16
TORSDOF 9
ENDMDL
MODEL 6
REMARK VINA RESULT:      -7.8     10.789     13.179
REMARK  Name = 194701
REMARK  11 active torsions:
REMARK  status: ('A' for Active; 'I' for Inactive)
REMARK    1  A    between atoms: O_3  and  C_8
REMARK    2  A    between atoms: O_3  and  C_11
REMARK    3  A    between atoms: N_4  and  C_5
REMARK    4  A    between atoms: N_4  and  C_6
REMARK    5  A    between atoms: N_4  and  C_7
REMARK    6  A    between atoms: C_5  and  C_8
REMARK    7  A    between atoms: C_6  and  C_9
REMARK    8  A    between atoms: C_7  and  C_10
REMARK    9  A    between atoms: C_12  and  C_15
REMARK   10  A    between atoms: C_15  and  C_18
REMARK   11  A    between atoms: C_19  and  C_20
REMARK                            x       y       z     vdW  Elec       q    Type
REMARK                         _______ _______ _______ _____ _____    ______ ____
ROOT
ATOM      1 CL   UNL     1      35.783   2.074  17.052  0.00  0.00    -0.082 Cl
ATOM      2  C   UNL     1      36.395   1.286  17.123  0.00  0.00    +0.056 C 
ATOM      3  C   UNL     1      37.367   1.424  17.313  0.00  0.00    +0.008 C 
ENDROOT
BRANCH   2   4
ATOM      4  C   UNL     1      36.035   0.361  17.003  0.00  0.00    -0.006 A 
ATOM      5  C   UNL     1      35.692  -0.148  17.793  0.00  0.00    +0.009 A 
ATOM      6  C   UNL     1      35.332  -1.073  17.673  0.00  0.00    +0.001 A 
ATOM      7  C   UNL     1      35.315  -1.489  16.764  0.00  0.00    +0.000 A 
ATOM      8  C   UNL     1      35.658  -0.981  15.975  0.00  0.00    +0.001 A 
ATOM      9  C   UNL     1      36.018  -0.055  16.094  0.00  0.00    +0.009 A 
ENDBRANCH   2   4
BRANCH   3  10
ATOM     10  C   UNL     1      37.979   0.636  17.383  0.00  0.00    -0.016 A 
ATOM     11  C   UNL     1      38.112   0.184  18.265  0.00  0.00    +0.008 A 
ATOM     12  C   UNL     1      38.724  -0.604  18.336  0.00  0.00    +0.001 A 
ATOM     13  C   UNL     1      39.203  -0.939  17.524  0.00  0.00    +0.000 A 
ATOM     14  C   UNL     1      39.070  -0.487  16.642  0.00  0.00    +0.001 A 
ATOM     15  C   UNL     1      38.458   0.301  16.572  0.00  0.00    +0.008 A 
ENDBRANCH   3  10
BRANCH   3  16
ATOM     16  C   UNL     1      37.727   2.349  17.432  0.00  0.00    -0.016 A 
ATOM     17  C   UNL     1      37.872   2.714  18.352  0.00  0.00    +0.012 A 
ATOM     18  C   UNL     1      38.232   3.640  18.471  0.00  0.00    +0.046 A 
ATOM     19  C   UNL     1      38.447   4.200  17.671  0.00  0.00    +0.121 A 
ATOM     20  C   UNL     1      38.302   3.834  16.751  0.00  0.00    +0.046 A 
ATOM     21  C   UNL     1      37.942   2.909  16.632  0.00  0.00    +0.012 A 
BRANCH  19  22
ATOM     22  O   UNL     1      38.807   5.125  17.790  0.00  0.00    -0.487 OA
BRANCH  22  23
ATOM     23  C   UNL     1      39.328   5.357  18.612  0.00  0.00    +0.279 C 
BRANCH  23  24
ATOM     24  C   UNL     1      39.576   6.308  18.795  0.00  0.00    +0.172 C 
BRANCH  24  25
ATOM     25  N   UNL     1      40.206   6.526  19.540  0.00  0.00    +0.219 N 
ATOM     26  O   UNL     1      40.951   6.087  19.038  0.00  0.00    -0.775 OA
BRANCH  25  27
ATOM     27  C   UNL     1      39.460   6.965  20.042  0.00  0.00    +0.127 C 
ATOM     28  C   UNL     1      39.275   7.938  19.911  0.00  0.00    +0.060 C 
ENDBRANCH  25  27
BRANCH  25  29
ATOM     29  C   UNL     1      40.836   6.744  20.286  0.00  0.00    +0.127 C 
ATOM     30  C   UNL     1      41.798   6.477  20.222  0.00  0.00    +0.060 C 
ENDBRANCH  25  29
ENDBRANCH  24  25
ENDBRANCH  23  24
ENDBRANCH  22  23
ENDBRANCH  19  22
ENDBRANCH   3  16
TORSDOF 9
ENDMDL
MODEL 7
REMARK VINA RESULT:      -7.8     11.616     14.168
REMARK  Name = 194701
REMARK  11 active torsions:
REMARK  status: ('A' for Active; 'I' for Inactive)
REMARK    1  A    between atoms: O_3  and  C_8
REMARK    2  A    between atoms: O_3  and  C_11
REMARK    3  A    between atoms: N_4  and  C_5
REMARK    4  A    between atoms: N_4  and  C_6
REMARK    5  A    between atoms: N_4  and  C_7
REMARK    6  A    between atoms: C_5  and  C_8
REMARK    7  A    between atoms: C_6  and  C_9
REMARK    8  A    between atoms: C_7  and  C_10
REMARK    9  A    between atoms: C_12  and  C_15
REMARK   10  A    between atoms: C_15  and  C_18
REMARK   11  A    between atoms: C_19  and  C_20
REMARK                            x       y       z     vdW  Elec       q    Type
REMARK                         _______ _______ _______ _____ _____    ______ ____
ROOT
ATOM      1 CL   UNL     1      37.871   7.279  18.512  0.00  0.00    -0.082 Cl
ATOM      2  C   UNL     1      38.818   7.284  18.835  0.00  0.00    +0.056 C 
ATOM      3  C   UNL     1      39.415   6.504  18.646  0.00  0.00    +0.008 C 
ENDROOT
BRANCH   2   4
ATOM      4  C   UNL     1      39.167   8.069  19.346  0.00  0.00    -0.006 A 
ATOM      5  C   UNL     1      39.065   8.104  20.341  0.00  0.00    +0.009 A 
ATOM      6  C   UNL     1      39.414   8.889  20.852  0.00  0.00    +0.001 A 
ATOM      7  C   UNL     1      39.867   9.639  20.369  0.00  0.00    +0.000 A 
ATOM      8  C   UNL     1      39.970   9.604  19.375  0.00  0.00    +0.001 A 
ATOM      9  C   UNL     1      39.620   8.819  18.864  0.00  0.00    +0.009 A 
ENDBRANCH   2   4
BRANCH   3  10
ATOM     10  C   UNL     1      40.361   6.509  18.969  0.00  0.00    -0.016 A 
ATOM     11  C   UNL     1      41.095   6.815  18.362  0.00  0.00    +0.008 A 
ATOM     12  C   UNL     1      42.041   6.820  18.685  0.00  0.00    +0.001 A 
ATOM     13  C   UNL     1      42.254   6.519  19.615  0.00  0.00    +0.000 A 
ATOM     14  C   UNL     1      41.520   6.213  20.221  0.00  0.00    +0.001 A 
ATOM     15  C   UNL     1      40.574   6.208  19.899  0.00  0.00    +0.008 A 
ENDBRANCH   3  10
BRANCH   3  16
ATOM     16  C   UNL     1      39.065   5.719  18.135  0.00  0.00    -0.016 A 
ATOM     17  C   UNL     1      39.019   5.753  17.137  0.00  0.00    +0.012 A 
ATOM     18  C   UNL     1      38.669   4.968  16.625  0.00  0.00    +0.046 A 
ATOM     19  C   UNL     1      38.366   4.149  17.112  0.00  0.00    +0.121 A 
ATOM     20  C   UNL     1      38.412   4.115  18.110  0.00  0.00    +0.046 A 
ATOM     21  C   UNL     1      38.762   4.900  18.622  0.00  0.00    +0.012 A 
BRANCH  19  22
ATOM     22  O   UNL     1      38.016   3.364  16.601  0.00  0.00    -0.487 OA
BRANCH  22  23
ATOM     23  C   UNL     1      37.126   2.972  16.834  0.00  0.00    +0.279 C 
BRANCH  23  24
ATOM     24  C   UNL     1      36.590   2.498  16.135  0.00  0.00    +0.172 C 
BRANCH  24  25
ATOM     25  N   UNL     1      35.747   2.023  16.387  0.00  0.00    +0.219 N 
ATOM     26  O   UNL     1      36.283   1.323  16.858  0.00  0.00    -0.775 OA
BRANCH  25  27
ATOM     27  C   UNL     1      35.211   2.724  15.916  0.00  0.00    +0.127 C 
ATOM     28  C   UNL     1      35.000   2.623  14.944  0.00  0.00    +0.060 C 
ENDBRANCH  25  27
BRANCH  25  29
ATOM     29  C   UNL     1      34.904   1.548  16.640  0.00  0.00    +0.127 C 
ATOM     30  C   UNL     1      34.949   0.663  17.104  0.00  0.00    +0.060 C 
ENDBRANCH  25  29
ENDBRANCH  24  25
ENDBRANCH  23  24
ENDBRANCH  22  23
ENDBRANCH  19  22
ENDBRANCH   3  16
TORSDOF 9
ENDMDL
MODEL 8
REMARK VINA RESULT:      -7.7      5.464     10.201
REMARK  Name = 194701
REMARK  11 active torsions:
REMARK  status: ('A' for Active; 'I' for Inactive)
REMARK    1  A    between atoms: O_3  and  C_8
REMARK    2  A    between atoms: O_3  and  C_11
REMARK    3  A    between atoms: N_4  and  C_5
REMARK    4  A    between atoms: N_4  and  C_6
REMARK    5  A    between atoms: N_4  and  C_7
REMARK    6  A    between atoms: C_5  and  C_8
REMARK    7  A    between atoms: C_6  and  C_9
REMARK    8  A    between atoms: C_7  and  C_10
REMARK    9  A    between atoms: C_12  and  C_15
REMARK   10  A    between atoms: C_15  and  C_18
REMARK   11  A    between atoms: C_19  and  C_20
REMARK                            x       y       z     vdW  Elec       q    Type
REMARK                         _______ _______ _______ _____ _____    ______ ____
ROOT
ATOM      1 CL   UNL     1      34.381  -1.026  17.381  0.00  0.00    -0.082 Cl
ATOM      2  C   UNL     1      35.192  -0.444  17.437  0.00  0.00    +0.056 C 
ATOM      3  C   UNL     1      35.863  -0.589  18.164  0.00  0.00    +0.008 C 
ENDROOT
BRANCH   2   4
ATOM      4  C   UNL     1      35.333   0.283  16.765  0.00  0.00    -0.006 A 
ATOM      5  C   UNL     1      35.832   0.092  15.919  0.00  0.00    +0.009 A 
ATOM      6  C   UNL     1      35.973   0.819  15.247  0.00  0.00    +0.001 A 
ATOM      7  C   UNL     1      35.615   1.736  15.420  0.00  0.00    +0.000 A 
ATOM      8  C   UNL     1      35.116   1.927  16.266  0.00  0.00    +0.001 A 
ATOM      9  C   UNL     1      34.975   1.200  16.938  0.00  0.00    +0.009 A 
ENDBRANCH   2   4
BRANCH   3  10
ATOM     10  C   UNL     1      36.674  -0.007  18.220  0.00  0.00    -0.016 A 
ATOM     11  C   UNL     1      37.505  -0.258  17.723  0.00  0.00    +0.008 A 
ATOM     12  C   UNL     1      38.316   0.324  17.778  0.00  0.00    +0.001 A 
ATOM     13  C   UNL     1      38.297   1.157  18.330  0.00  0.00    +0.000 A 
ATOM     14  C   UNL     1      37.466   1.408  18.827  0.00  0.00    +0.001 A 
ATOM     15  C   UNL     1      36.655   0.826  18.772  0.00  0.00    +0.008 A 
ENDBRANCH   3  10
BRANCH   3  16
ATOM     16  C   UNL     1      35.722  -1.316  18.837  0.00  0.00    -0.016 A 
ATOM     17  C   UNL     1      36.122  -2.220  18.686  0.00  0.00    +0.012 A 
ATOM     18  C   UNL     1      35.981  -2.947  19.359  0.00  0.00    +0.046 A 
ATOM     19  C   UNL     1      35.441  -2.769  20.181  0.00  0.00    +0.121 A 
ATOM     20  C   UNL     1      35.041  -1.865  20.331  0.00  0.00    +0.046 A 
ATOM     21  C   UNL     1      35.182  -1.138  19.659  0.00  0.00    +0.012 A 
BRANCH  19  22
ATOM     22  O   UNL     1      35.300  -3.496  20.853  0.00  0.00    -0.487 OA
BRANCH  22  23
ATOM     23  C   UNL     1      34.720  -3.334  21.652  0.00  0.00    +0.279 C 
BRANCH  23  24
ATOM     24  C   UNL     1      34.141  -4.067  22.006  0.00  0.00    +0.172 C 
BRANCH  24  25
ATOM     25  N   UNL     1      33.549  -3.900  22.795  0.00  0.00    +0.219 N 
ATOM     26  O   UNL     1      34.336  -3.991  23.405  0.00  0.00    -0.775 OA
BRANCH  25  27
ATOM     27  C   UNL     1      32.762  -3.810  22.185  0.00  0.00    +0.127 C 
ATOM     28  C   UNL     1      32.224  -4.617  21.940  0.00  0.00    +0.060 C 
ENDBRANCH  25  27
BRANCH  25  29
ATOM     29  C   UNL     1      32.957  -3.733  23.584  0.00  0.00    +0.127 C 
ATOM     30  C   UNL     1      33.347  -3.384  24.436  0.00  0.00    +0.060 C 
ENDBRANCH  25  29
ENDBRANCH  24  25
ENDBRANCH  23  24
ENDBRANCH  22  23
ENDBRANCH  19  22
ENDBRANCH   3  16
TORSDOF 9
ENDMDL
MODEL 9
REMARK VINA RESULT:      -7.6      5.726     10.586
REMARK  Name = 194701
REMARK  11 active torsions:
REMARK  status: ('A' for Active; 'I' for Inactive)
REMARK    1  A    between atoms: O_3  and  C_8
REMARK    2  A    between atoms: O_3  and  C_11
REMARK    3  A    between atoms: N_4  and  C_5
REMARK    4  A    between atoms: N_4  and  C_6
REMARK    5  A    between atoms: N_4  and  C_7
REMARK    6  A    between atoms: C_5  and  C_8
REMARK    7  A    between atoms: C_6  and  C_9
REMARK    8  A    between atoms: C_7  and  C_10
REMARK    9  A    between atoms: C_12  and  C_15
REMARK   10  A    between atoms: C_15  and  C_18
REMARK   11  A    between atoms: C_19  and  C_20
REMARK                            x       y       z     vdW  Elec       q    Type
REMARK                         _______ _______ _______ _____ _____    ______ ____
ROOT
ATOM      1 CL   UNL     1      35.841   0.610  19.567  0.00  0.00    -0.082 Cl
ATOM      2  C   UNL     1      36.602   0.494  18.929  0.00  0.00    +0.056 C 
ATOM      3  C   UNL     1      36.959  -0.421  18.739  0.00  0.00    +0.008 C 
ENDROOT
BRANCH   2   4
ATOM      4  C   UNL     1      37.006   1.291  18.482  0.00  0.00    -0.006 A 
ATOM      5  C   UNL     1      36.661   1.595  17.594  0.00  0.00    +0.009 A 
ATOM      6  C   UNL     1      37.065   2.392  17.146  0.00  0.00    +0.001 A 
ATOM      7  C   UNL     1      37.815   2.887  17.587  0.00  0.00    +0.000 A 
ATOM      8  C   UNL     1      38.159   2.583  18.475  0.00  0.00    +0.001 A 
ATOM      9  C   UNL     1      37.755   1.786  18.923  0.00  0.00    +0.009 A 
ENDBRANCH   2   4
BRANCH   3  10
ATOM     10  C   UNL     1      37.720  -0.538  18.101  0.00  0.00    -0.016 A 
ATOM     11  C   UNL     1      37.539  -0.720  17.134  0.00  0.00    +0.008 A 
ATOM     12  C   UNL     1      38.300  -0.837  16.497  0.00  0.00    +0.001 A 
ATOM     13  C   UNL     1      39.242  -0.771  16.825  0.00  0.00    +0.000 A 
ATOM     14  C   UNL     1      39.423  -0.589  17.791  0.00  0.00    +0.001 A 
ATOM     15  C   UNL     1      38.662  -0.472  18.429  0.00  0.00    +0.008 A 
ENDBRANCH   3  10
BRANCH   3  16
ATOM     16  C   UNL     1      36.554  -1.219  19.186  0.00  0.00    -0.016 A 
ATOM     17  C   UNL     1      35.676  -1.577  18.871  0.00  0.00    +0.012 A 
ATOM     18  C   UNL     1      35.272  -2.375  19.318  0.00  0.00    +0.046 A 
ATOM     19  C   UNL     1      35.746  -2.814  20.081  0.00  0.00    +0.121 A 
ATOM     20  C   UNL     1      36.624  -2.455  20.397  0.00  0.00    +0.046 A 
ATOM     21  C   UNL     1      37.029  -1.658  19.950  0.00  0.00    +0.012 A 
BRANCH  19  22
ATOM     22  O   UNL     1      35.342  -3.612  20.529  0.00  0.00    -0.487 OA
BRANCH  22  23
ATOM     23  C   UNL     1      34.921  -3.519  21.432  0.00  0.00    +0.279 C 
BRANCH  23  24
ATOM     24  C   UNL     1      34.226  -4.173  21.729  0.00  0.00    +0.172 C 
BRANCH  24  25
ATOM     25  N   UNL     1      33.660  -3.973  22.529  0.00  0.00    +0.219 N 
ATOM     26  O   UNL     1      34.457  -4.090  23.122  0.00  0.00    -0.775 OA
BRANCH  25  27
ATOM     27  C   UNL     1      32.864  -3.856  21.936  0.00  0.00    +0.127 C 
ATOM     28  C   UNL     1      32.248  -4.626  21.767  0.00  0.00    +0.060 C 
ENDBRANCH  25  27
BRANCH  25  29
ATOM     29  C   UNL     1      33.095  -3.772  23.329  0.00  0.00    +0.127 C 
ATOM     30  C   UNL     1      33.519  -3.441  24.171  0.00  0.00    +0.060 C 
ENDBRANCH  25  29
ENDBRANCH  24  25
ENDBRANCH  23  24
ENDBRANCH  22  23
ENDBRANCH  19  22
ENDBRANCH   3  16
TORSDOF 9
ENDMDL
MODEL 10
REMARK VINA RESULT:      -7.6      8.182     10.465
REMARK  Name = 194701
REMARK  11 active torsions:
REMARK  status: ('A' for Active; 'I' for Inactive)
REMARK    1  A    between atoms: O_3  and  C_8
REMARK    2  A    between atoms: O_3  and  C_11
REMARK    3  A    between atoms: N_4  and  C_5
REMARK    4  A    between atoms: N_4  and  C_6
REMARK    5  A    between atoms: N_4  and  C_7
REMARK    6  A    between atoms: C_5  and  C_8
REMARK    7  A    between atoms: C_6  and  C_9
REMARK    8  A    between atoms: C_7  and  C_10
REMARK    9  A    between atoms: C_12  and  C_15
REMARK   10  A    between atoms: C_15  and  C_18
REMARK   11  A    between atoms: C_19  and  C_20
REMARK                            x       y       z     vdW  Elec       q    Type
REMARK                         _______ _______ _______ _____ _____    ______ ____
ROOT
ATOM      1 CL   UNL     1      34.907  -3.308  16.675  0.00  0.00    -0.082 Cl
ATOM      2  C   UNL     1      33.974  -3.351  17.032  0.00  0.00    +0.056 C 
ATOM      3  C   UNL     1      33.613  -2.597  17.581  0.00  0.00    +0.008 C 
ENDROOT
BRANCH   2   4
ATOM      4  C   UNL     1      33.402  -4.148  16.840  0.00  0.00    -0.006 A 
ATOM      5  C   UNL     1      32.808  -4.155  16.036  0.00  0.00    +0.009 A 
ATOM      6  C   UNL     1      32.235  -4.953  15.844  0.00  0.00    +0.001 A 
ATOM      7  C   UNL     1      32.257  -5.743  16.457  0.00  0.00    +0.000 A 
ATOM      8  C   UNL     1      32.851  -5.736  17.261  0.00  0.00    +0.001 A 
ATOM      9  C   UNL     1      33.423  -4.938  17.453  0.00  0.00    +0.009 A 
ENDBRANCH   2   4
BRANCH   3  10
ATOM     10  C   UNL     1      32.680  -2.640  17.938  0.00  0.00    -0.016 A 
ATOM     11  C   UNL     1      31.924  -2.254  17.410  0.00  0.00    +0.008 A 
ATOM     12  C   UNL     1      30.991  -2.297  17.768  0.00  0.00    +0.001 A 
ATOM     13  C   UNL     1      30.814  -2.727  18.653  0.00  0.00    +0.000 A 
ATOM     14  C   UNL     1      31.570  -3.113  19.181  0.00  0.00    +0.001 A 
ATOM     15  C   UNL     1      32.503  -3.070  18.824  0.00  0.00    +0.008 A 
ENDBRANCH   3  10
BRANCH   3  16
ATOM     16  C   UNL     1      34.186  -1.800  17.773  0.00  0.00    -0.016 A 
ATOM     17  C   UNL     1      34.716  -1.757  18.620  0.00  0.00    +0.012 A 
ATOM     18  C   UNL     1      35.288  -0.960  18.812  0.00  0.00    +0.046 A 
ATOM     19  C   UNL     1      35.331  -0.206  18.157  0.00  0.00    +0.121 A 
ATOM     20  C   UNL     1      34.801  -0.248  17.310  0.00  0.00    +0.046 A 
ATOM     21  C   UNL     1      34.228  -1.046  17.118  0.00  0.00    +0.012 A 
BRANCH  19  22
ATOM     22  O   UNL     1      35.903   0.592  18.349  0.00  0.00    -0.487 OA
BRANCH  22  23
ATOM     23  C   UNL     1      36.556   0.915  17.664  0.00  0.00    +0.279 C 
BRANCH  23  24
ATOM     24  C   UNL     1      37.260   1.578  17.918  0.00  0.00    +0.172 C 
BRANCH  24  25
ATOM     25  N   UNL     1      37.804   2.027  17.208  0.00  0.00    +0.219 N 
ATOM     26  O   UNL     1      38.043   1.134  16.827  0.00  0.00    -0.775 OA
BRANCH  25  27
ATOM     27  C   UNL     1      37.565   2.919  17.590  0.00  0.00    +0.127 C 
ATOM     28  C   UNL     1      38.195   3.381  18.215  0.00  0.00    +0.060 C 
ENDBRANCH  25  27
BRANCH  25  29
ATOM     29  C   UNL     1      38.347   2.476  16.499  0.00  0.00    +0.127 C 
ATOM     30  C   UNL     1      38.574   1.985  15.658  0.00  0.00    +0.060 C 
ENDBRANCH  25  29
ENDBRANCH  24  25
ENDBRANCH  23  24
ENDBRANCH  22  23
ENDBRANCH  19  22
ENDBRANCH   3  16
TORSDOF 9
ENDMDL
