REMARK  Name = 20227298
REMARK  11 active torsions:
REMARK  status: ('A' for Active; 'I' for Inactive)
REMARK    1  A    between atoms: O_1  and  C_11
REMARK    2  A    between atoms: O_1  and  C_14
REMARK    3  A    between atoms: O_2  and  C_23
REMARK    4  A    between atoms: N_3  and  C_12
REMARK    5  A    between atoms: N_3  and  C_24
REMARK    6  A    between atoms: N_3  and  C_25
REMARK    7  A    between atoms: C_4  and  C_5
REMARK    8  A    between atoms: C_4  and  C_7
REMARK    9  A    between atoms: C_6  and  C_8
REMARK   10  A    between atoms: C_6  and  C_13
REMARK   11  A    between atoms: C_12  and  C_14
REMARK                            x       y       z     vdW  Elec       q    Type
REMARK                         _______ _______ _______ _____ _____    ______ ____
ROOT
ATOM      1  C   UNL     1       4.598   1.750   0.000  0.00  0.00    -0.007 C 
ATOM      2  C   UNL     1       3.732   2.250   0.000  0.00  0.00    -0.035 C 
ATOM      3  C   UNL     1       2.866   1.750   0.000  0.00  0.00    +0.045 C 
ENDROOT
BRANCH   1   7
ATOM      4  C   UNL     1       4.598  -1.250   0.000  0.00  0.00    +0.121 A 
ATOM      5  C   UNL     1       3.732  -0.750   0.000  0.00  0.00    +0.046 A 
ATOM      6  C   UNL     1       3.732   0.250   0.000  0.00  0.00    +0.012 A 
ATOM      7  C   UNL     1       4.598   0.750   0.000  0.00  0.00    -0.017 A 
ATOM      8  C   UNL     1       5.464   0.250   0.000  0.00  0.00    +0.012 A 
ATOM      9  C   UNL     1       5.464  -0.750   0.000  0.00  0.00    +0.046 A 
BRANCH   4  10
ATOM     10  O   UNL     1       4.598  -2.250   0.000  0.00  0.00    -0.491 OA
BRANCH  10  11
ATOM     11  C   UNL     1       3.732  -2.750   0.000  0.00  0.00    +0.244 C 
BRANCH  11  12
ATOM     12  C   UNL     1       3.732  -3.750   0.000  0.00  0.00    +0.124 C 
BRANCH  12  13
ATOM     13  N   UNL     1       2.866  -4.250   0.000  0.00  0.00    -0.305 NA
ATOM     14  C   UNL     1       2.000  -3.750   0.000  0.00  0.00    +0.104 C 
ATOM     15  C   UNL     1       2.866  -5.250   0.000  0.00  0.00    +0.104 C 
ENDBRANCH  12  13
ENDBRANCH  11  12
ENDBRANCH  10  11
ENDBRANCH   4  10
ENDBRANCH   1   7
BRANCH   1  16
ATOM     16  C   UNL     1       5.464   2.250   0.000  0.00  0.00    -0.017 A 
ATOM     17  C   UNL     1       5.464   3.250   0.000  0.00  0.00    +0.012 A 
ATOM     18  C   UNL     1       6.330   3.750   0.000  0.00  0.00    +0.046 A 
ATOM     19  C   UNL     1       7.196   3.250   0.000  0.00  0.00    +0.117 A 
ATOM     20  C   UNL     1       7.196   2.250   0.000  0.00  0.00    +0.046 A 
ATOM     21  C   UNL     1       6.330   1.750   0.000  0.00  0.00    +0.012 A 
BRANCH  19  22
ATOM     22  O   UNL     1       8.062   3.750   0.000  0.00  0.00    -0.507 OA
ATOM     23  H   UNL     1       8.599   3.440   0.000  0.00  0.00    +0.292 HD
ENDBRANCH  19  22
ENDBRANCH   1  16
BRANCH   2  24
ATOM     24  C   UNL     1       3.732   3.250   0.000  0.00  0.00    -0.022 A 
ATOM     25  C   UNL     1       4.598   3.750   0.000  0.00  0.00    +0.008 A 
ATOM     26  C   UNL     1       4.598   4.750   0.000  0.00  0.00    +0.001 A 
ATOM     27  C   UNL     1       3.732   5.250   0.000  0.00  0.00    +0.000 A 
ATOM     28  C   UNL     1       2.866   4.750   0.000  0.00  0.00    +0.001 A 
ATOM     29  C   UNL     1       2.866   3.750   0.000  0.00  0.00    +0.008 A 
ENDBRANCH   2  24
TORSDOF 8
