MODEL 1
REMARK VINA RESULT:      -8.0      0.000      0.000
REMARK  Name = 20227298
REMARK  11 active torsions:
REMARK  status: ('A' for Active; 'I' for Inactive)
REMARK    1  A    between atoms: O_1  and  C_11
REMARK    2  A    between atoms: O_1  and  C_14
REMARK    3  A    between atoms: O_2  and  C_23
REMARK    4  A    between atoms: N_3  and  C_12
REMARK    5  A    between atoms: N_3  and  C_24
REMARK    6  A    between atoms: N_3  and  C_25
REMARK    7  A    between atoms: C_4  and  C_5
REMARK    8  A    between atoms: C_4  and  C_7
REMARK    9  A    between atoms: C_6  and  C_8
REMARK   10  A    between atoms: C_6  and  C_13
REMARK   11  A    between atoms: C_12  and  C_14
REMARK                            x       y       z     vdW  Elec       q    Type
REMARK                         _______ _______ _______ _____ _____    ______ ____
ROOT
ATOM      1  C   UNL     1      33.684  -2.638  17.793  0.00  0.00    -0.007 C 
ATOM      2  C   UNL     1      34.088  -3.366  17.238  0.00  0.00    -0.035 C 
ATOM      3  C   UNL     1      35.064  -3.345  17.021  0.00  0.00    +0.045 C 
ENDROOT
BRANCH   1   7
ATOM      4  C   UNL     1      35.401  -0.395  18.804  0.00  0.00    +0.121 A 
ATOM      5  C   UNL     1      35.241  -1.199  19.376  0.00  0.00    +0.046 A 
ATOM      6  C   UNL     1      34.669  -1.947  19.039  0.00  0.00    +0.012 A 
ATOM      7  C   UNL     1      34.256  -1.890  18.130  0.00  0.00    -0.017 A 
ATOM      8  C   UNL     1      34.416  -1.086  17.558  0.00  0.00    +0.012 A 
ATOM      9  C   UNL     1      34.988  -0.338  17.895  0.00  0.00    +0.046 A 
BRANCH   4  10
ATOM     10  O   UNL     1      35.973   0.353  19.141  0.00  0.00    -0.491 OA
BRANCH  10  11
ATOM     11  C   UNL     1      36.896   0.479  18.778  0.00  0.00    +0.244 C 
BRANCH  11  12
ATOM     12  C   UNL     1      37.437   1.274  19.053  0.00  0.00    +0.124 C 
BRANCH  12  13
ATOM     13  N   UNL     1      38.084   1.685  18.411  0.00  0.00    -0.305 NA
ATOM     14  C   UNL     1      38.167   2.680  18.353  0.00  0.00    +0.104 C 
ATOM     15  C   UNL     1      38.648   1.102  17.827  0.00  0.00    +0.104 C 
ENDBRANCH  12  13
ENDBRANCH  11  12
ENDBRANCH  10  11
ENDBRANCH   4  10
ENDBRANCH   1   7
BRANCH   1  16
ATOM     16  C   UNL     1      32.709  -2.658  18.011  0.00  0.00    -0.017 A 
ATOM     17  C   UNL     1      32.388  -3.138  18.827  0.00  0.00    +0.012 A 
ATOM     18  C   UNL     1      31.412  -3.159  19.045  0.00  0.00    +0.046 A 
ATOM     19  C   UNL     1      30.757  -2.699  18.446  0.00  0.00    +0.117 A 
ATOM     20  C   UNL     1      31.077  -2.219  17.629  0.00  0.00    +0.046 A 
ATOM     21  C   UNL     1      32.053  -2.198  17.412  0.00  0.00    +0.012 A 
BRANCH  19  22
ATOM     22  O   UNL     1      29.781  -2.719  18.663  0.00  0.00    -0.507 OA
ATOM     23  H   UNL     1      29.427  -2.225  18.544  0.00  0.00    +0.292 HD
ENDBRANCH  19  22
ENDBRANCH   1  16
BRANCH   2  24
ATOM     24  C   UNL     1      33.516  -4.113  16.901  0.00  0.00    -0.022 A 
ATOM     25  C   UNL     1      33.405  -4.943  17.448  0.00  0.00    +0.008 A 
ATOM     26  C   UNL     1      32.833  -5.691  17.111  0.00  0.00    +0.001 A 
ATOM     27  C   UNL     1      32.372  -5.609  16.227  0.00  0.00    +0.000 A 
ATOM     28  C   UNL     1      32.484  -4.779  15.681  0.00  0.00    +0.001 A 
ATOM     29  C   UNL     1      33.056  -4.031  16.018  0.00  0.00    +0.008 A 
ENDBRANCH   2  24
TORSDOF 8
ENDMDL
MODEL 2
REMARK VINA RESULT:      -7.9      3.380      5.991
REMARK  Name = 20227298
REMARK  11 active torsions:
REMARK  status: ('A' for Active; 'I' for Inactive)
REMARK    1  A    between atoms: O_1  and  C_11
REMARK    2  A    between atoms: O_1  and  C_14
REMARK    3  A    between atoms: O_2  and  C_23
REMARK    4  A    between atoms: N_3  and  C_12
REMARK    5  A    between atoms: N_3  and  C_24
REMARK    6  A    between atoms: N_3  and  C_25
REMARK    7  A    between atoms: C_4  and  C_5
REMARK    8  A    between atoms: C_4  and  C_7
REMARK    9  A    between atoms: C_6  and  C_8
REMARK   10  A    between atoms: C_6  and  C_13
REMARK   11  A    between atoms: C_12  and  C_14
REMARK                            x       y       z     vdW  Elec       q    Type
REMARK                         _______ _______ _______ _____ _____    ______ ____
ROOT
ATOM      1  C   UNL     1      36.182  -1.071  18.555  0.00  0.00    -0.007 C 
ATOM      2  C   UNL     1      35.872  -1.309  17.635  0.00  0.00    -0.035 C 
ATOM      3  C   UNL     1      35.365  -2.158  17.483  0.00  0.00    +0.045 C 
ENDROOT
BRANCH   1   7
ATOM      4  C   UNL     1      35.592  -2.900  20.858  0.00  0.00    +0.121 A 
ATOM      5  C   UNL     1      34.886  -2.277  20.521  0.00  0.00    +0.046 A 
ATOM      6  C   UNL     1      35.083  -1.668  19.754  0.00  0.00    +0.012 A 
ATOM      7  C   UNL     1      35.985  -1.681  19.323  0.00  0.00    -0.017 A 
ATOM      8  C   UNL     1      36.691  -2.303  19.660  0.00  0.00    +0.012 A 
ATOM      9  C   UNL     1      36.494  -2.913  20.428  0.00  0.00    +0.046 A 
BRANCH   4  10
ATOM     10  O   UNL     1      35.395  -3.510  21.626  0.00  0.00    -0.491 OA
BRANCH  10  11
ATOM     11  C   UNL     1      34.464  -3.581  21.983  0.00  0.00    +0.244 C 
BRANCH  11  12
ATOM     12  C   UNL     1      34.300  -4.004  22.874  0.00  0.00    +0.124 C 
BRANCH  12  13
ATOM     13  N   UNL     1      33.426  -3.867  23.340  0.00  0.00    -0.305 NA
ATOM     14  C   UNL     1      33.405  -3.467  24.256  0.00  0.00    +0.104 C 
ATOM     15  C   UNL     1      32.573  -4.132  22.889  0.00  0.00    +0.104 C 
ENDBRANCH  12  13
ENDBRANCH  11  12
ENDBRANCH  10  11
ENDBRANCH   4  10
ENDBRANCH   1   7
BRANCH   1  16
ATOM     16  C   UNL     1      36.689  -0.222  18.708  0.00  0.00    -0.017 A 
ATOM     17  C   UNL     1      37.683  -0.208  18.603  0.00  0.00    +0.012 A 
ATOM     18  C   UNL     1      38.190   0.641  18.755  0.00  0.00    +0.046 A 
ATOM     19  C   UNL     1      37.702   1.475  19.013  0.00  0.00    +0.117 A 
ATOM     20  C   UNL     1      36.708   1.460  19.118  0.00  0.00    +0.046 A 
ATOM     21  C   UNL     1      36.201   0.612  18.966  0.00  0.00    +0.012 A 
BRANCH  19  22
ATOM     22  O   UNL     1      38.209   2.323  19.165  0.00  0.00    -0.507 OA
ATOM     23  H   UNL     1      37.903   2.853  19.268  0.00  0.00    +0.292 HD
ENDBRANCH  19  22
ENDBRANCH   1  16
BRANCH   2  24
ATOM     24  C   UNL     1      36.068  -0.699  16.867  0.00  0.00    -0.022 A 
ATOM     25  C   UNL     1      36.913  -0.810  16.344  0.00  0.00    +0.008 A 
ATOM     26  C   UNL     1      37.110  -0.200  15.577  0.00  0.00    +0.001 A 
ATOM     27  C   UNL     1      36.461   0.520  15.332  0.00  0.00    +0.000 A 
ATOM     28  C   UNL     1      35.616   0.631  15.855  0.00  0.00    +0.001 A 
ATOM     29  C   UNL     1      35.420   0.021  16.623  0.00  0.00    +0.008 A 
ENDBRANCH   2  24
TORSDOF 8
ENDMDL
MODEL 3
REMARK VINA RESULT:      -7.8      3.824      6.333
REMARK  Name = 20227298
REMARK  11 active torsions:
REMARK  status: ('A' for Active; 'I' for Inactive)
REMARK    1  A    between atoms: O_1  and  C_11
REMARK    2  A    between atoms: O_1  and  C_14
REMARK    3  A    between atoms: O_2  and  C_23
REMARK    4  A    between atoms: N_3  and  C_12
REMARK    5  A    between atoms: N_3  and  C_24
REMARK    6  A    between atoms: N_3  and  C_25
REMARK    7  A    between atoms: C_4  and  C_5
REMARK    8  A    between atoms: C_4  and  C_7
REMARK    9  A    between atoms: C_6  and  C_8
REMARK   10  A    between atoms: C_6  and  C_13
REMARK   11  A    between atoms: C_12  and  C_14
REMARK                            x       y       z     vdW  Elec       q    Type
REMARK                         _______ _______ _______ _____ _____    ______ ____
ROOT
ATOM      1  C   UNL     1      37.375   1.779  17.321  0.00  0.00    -0.007 C 
ATOM      2  C   UNL     1      36.485   1.722  16.868  0.00  0.00    -0.035 C 
ATOM      3  C   UNL     1      36.035   2.554  16.544  0.00  0.00    +0.045 C 
ENDROOT
BRANCH   1   7
ATOM      4  C   UNL     1      38.693   4.446  17.707  0.00  0.00    +0.121 A 
ATOM      5  C   UNL     1      38.658   4.033  16.798  0.00  0.00    +0.046 A 
ATOM      6  C   UNL     1      38.219   3.144  16.669  0.00  0.00    +0.012 A 
ATOM      7  C   UNL     1      37.814   2.668  17.450  0.00  0.00    -0.017 A 
ATOM      8  C   UNL     1      37.849   3.081  18.360  0.00  0.00    +0.012 A 
ATOM      9  C   UNL     1      38.289   3.970  18.489  0.00  0.00    +0.046 A 
BRANCH   4  10
ATOM     10  O   UNL     1      39.133   5.335  17.836  0.00  0.00    -0.491 OA
BRANCH  10  11
ATOM     11  C   UNL     1      39.363   5.650  18.757  0.00  0.00    +0.244 C 
BRANCH  11  12
ATOM     12  C   UNL     1      39.829   6.526  18.883  0.00  0.00    +0.124 C 
BRANCH  12  13
ATOM     13  N   UNL     1      40.054   6.844  19.804  0.00  0.00    -0.305 NA
ATOM     14  C   UNL     1      40.929   6.594  20.219  0.00  0.00    +0.104 C 
ATOM     15  C   UNL     1      39.405   7.412  20.310  0.00  0.00    +0.104 C 
ENDBRANCH  12  13
ENDBRANCH  11  12
ENDBRANCH  10  11
ENDBRANCH   4  10
ENDBRANCH   1   7
BRANCH   1  16
ATOM     16  C   UNL     1      37.825   0.947  17.646  0.00  0.00    -0.017 A 
ATOM     17  C   UNL     1      37.618   0.589  18.556  0.00  0.00    +0.012 A 
ATOM     18  C   UNL     1      38.068  -0.243  18.881  0.00  0.00    +0.046 A 
ATOM     19  C   UNL     1      38.725  -0.717  18.294  0.00  0.00    +0.117 A 
ATOM     20  C   UNL     1      38.932  -0.359  17.384  0.00  0.00    +0.046 A 
ATOM     21  C   UNL     1      38.482   0.473  17.059  0.00  0.00    +0.012 A 
BRANCH  19  22
ATOM     22  O   UNL     1      39.175  -1.549  18.619  0.00  0.00    -0.507 OA
ATOM     23  H   UNL     1      39.647  -1.791  18.298  0.00  0.00    +0.292 HD
ENDBRANCH  19  22
ENDBRANCH   1  16
BRANCH   2  24
ATOM     24  C   UNL     1      36.046   0.833  16.740  0.00  0.00    -0.022 A 
ATOM     25  C   UNL     1      36.238   0.294  15.920  0.00  0.00    +0.008 A 
ATOM     26  C   UNL     1      35.798  -0.595  15.791  0.00  0.00    +0.001 A 
ATOM     27  C   UNL     1      35.167  -0.945  16.482  0.00  0.00    +0.000 A 
ATOM     28  C   UNL     1      34.974  -0.406  17.303  0.00  0.00    +0.001 A 
ATOM     29  C   UNL     1      35.414   0.483  17.431  0.00  0.00    +0.008 A 
ENDBRANCH   2  24
TORSDOF 8
ENDMDL
MODEL 4
REMARK VINA RESULT:      -7.8      4.205      5.857
REMARK  Name = 20227298
REMARK  11 active torsions:
REMARK  status: ('A' for Active; 'I' for Inactive)
REMARK    1  A    between atoms: O_1  and  C_11
REMARK    2  A    between atoms: O_1  and  C_14
REMARK    3  A    between atoms: O_2  and  C_23
REMARK    4  A    between atoms: N_3  and  C_12
REMARK    5  A    between atoms: N_3  and  C_24
REMARK    6  A    between atoms: N_3  and  C_25
REMARK    7  A    between atoms: C_4  and  C_5
REMARK    8  A    between atoms: C_4  and  C_7
REMARK    9  A    between atoms: C_6  and  C_8
REMARK   10  A    between atoms: C_6  and  C_13
REMARK   11  A    between atoms: C_12  and  C_14
REMARK                            x       y       z     vdW  Elec       q    Type
REMARK                         _______ _______ _______ _____ _____    ______ ____
ROOT
ATOM      1  C   UNL     1      33.547  -3.118  20.603  0.00  0.00    -0.007 C 
ATOM      2  C   UNL     1      32.859  -3.358  19.917  0.00  0.00    -0.035 C 
ATOM      3  C   UNL     1      31.952  -3.666  20.205  0.00  0.00    +0.045 C 
ENDROOT
BRANCH   1   7
ATOM      4  C   UNL     1      32.889  -3.322  23.523  0.00  0.00    +0.121 A 
ATOM      5  C   UNL     1      33.407  -4.051  23.075  0.00  0.00    +0.046 A 
ATOM      6  C   UNL     1      33.627  -3.982  22.101  0.00  0.00    +0.012 A 
ATOM      7  C   UNL     1      33.327  -3.186  21.576  0.00  0.00    -0.017 A 
ATOM      8  C   UNL     1      32.809  -2.458  22.024  0.00  0.00    +0.012 A 
ATOM      9  C   UNL     1      32.590  -2.526  22.997  0.00  0.00    +0.046 A 
BRANCH   4  10
ATOM     10  O   UNL     1      32.670  -3.390  24.496  0.00  0.00    -0.491 OA
BRANCH  10  11
ATOM     11  C   UNL     1      32.899  -2.638  25.114  0.00  0.00    +0.244 C 
BRANCH  11  12
ATOM     12  C   UNL     1      32.764  -2.742  26.099  0.00  0.00    +0.124 C 
BRANCH  12  13
ATOM     13  N   UNL     1      32.750  -1.935  26.690  0.00  0.00    -0.305 NA
ATOM     14  C   UNL     1      33.574  -1.379  26.797  0.00  0.00    +0.104 C 
ATOM     15  C   UNL     1      31.910  -1.684  27.172  0.00  0.00    +0.104 C 
ENDBRANCH  12  13
ENDBRANCH  11  12
ENDBRANCH  10  11
ENDBRANCH   4  10
ENDBRANCH   1   7
BRANCH   1  16
ATOM     16  C   UNL     1      34.453  -2.810  20.315  0.00  0.00    -0.017 A 
ATOM     17  C   UNL     1      35.196  -3.471  20.210  0.00  0.00    +0.012 A 
ATOM     18  C   UNL     1      36.103  -3.162  19.922  0.00  0.00    +0.046 A 
ATOM     19  C   UNL     1      36.266  -2.193  19.739  0.00  0.00    +0.117 A 
ATOM     20  C   UNL     1      35.524  -1.532  19.844  0.00  0.00    +0.046 A 
ATOM     21  C   UNL     1      34.617  -1.840  20.132  0.00  0.00    +0.012 A 
BRANCH  19  22
ATOM     22  O   UNL     1      37.173  -1.885  19.451  0.00  0.00    -0.507 OA
ATOM     23  H   UNL     1      37.232  -1.514  18.958  0.00  0.00    +0.292 HD
ENDBRANCH  19  22
ENDBRANCH   1  16
BRANCH   2  24
ATOM     24  C   UNL     1      33.078  -3.290  18.944  0.00  0.00    -0.022 A 
ATOM     25  C   UNL     1      33.478  -4.072  18.466  0.00  0.00    +0.008 A 
ATOM     26  C   UNL     1      33.697  -4.004  17.492  0.00  0.00    +0.001 A 
ATOM     27  C   UNL     1      33.517  -3.154  16.997  0.00  0.00    +0.000 A 
ATOM     28  C   UNL     1      33.117  -2.372  17.476  0.00  0.00    +0.001 A 
ATOM     29  C   UNL     1      32.898  -2.440  18.449  0.00  0.00    +0.008 A 
ENDBRANCH   2  24
TORSDOF 8
ENDMDL
MODEL 5
REMARK VINA RESULT:      -7.7      3.450      6.087
REMARK  Name = 20227298
REMARK  11 active torsions:
REMARK  status: ('A' for Active; 'I' for Inactive)
REMARK    1  A    between atoms: O_1  and  C_11
REMARK    2  A    between atoms: O_1  and  C_14
REMARK    3  A    between atoms: O_2  and  C_23
REMARK    4  A    between atoms: N_3  and  C_12
REMARK    5  A    between atoms: N_3  and  C_24
REMARK    6  A    between atoms: N_3  and  C_25
REMARK    7  A    between atoms: C_4  and  C_5
REMARK    8  A    between atoms: C_4  and  C_7
REMARK    9  A    between atoms: C_6  and  C_8
REMARK   10  A    between atoms: C_6  and  C_13
REMARK   11  A    between atoms: C_12  and  C_14
REMARK                            x       y       z     vdW  Elec       q    Type
REMARK                         _______ _______ _______ _____ _____    ______ ____
ROOT
ATOM      1  C   UNL     1      36.207  -0.996  18.620  0.00  0.00    -0.007 C 
ATOM      2  C   UNL     1      35.640  -1.095  17.802  0.00  0.00    -0.035 C 
ATOM      3  C   UNL     1      35.129  -1.941  17.648  0.00  0.00    +0.045 C 
ENDROOT
BRANCH   1   7
ATOM      4  C   UNL     1      36.374  -3.234  20.610  0.00  0.00    +0.121 A 
ATOM      5  C   UNL     1      35.607  -2.593  20.642  0.00  0.00    +0.046 A 
ATOM      6  C   UNL     1      35.551  -1.847  19.979  0.00  0.00    +0.012 A 
ATOM      7  C   UNL     1      36.263  -1.742  19.284  0.00  0.00    -0.017 A 
ATOM      8  C   UNL     1      37.029  -2.383  19.252  0.00  0.00    +0.012 A 
ATOM      9  C   UNL     1      37.085  -3.129  19.915  0.00  0.00    +0.046 A 
BRANCH   4  10
ATOM     10  O   UNL     1      36.430  -3.981  21.274  0.00  0.00    -0.491 OA
BRANCH  10  11
ATOM     11  C   UNL     1      36.513  -4.926  20.957  0.00  0.00    +0.244 C 
BRANCH  11  12
ATOM     12  C   UNL     1      36.344  -5.681  21.590  0.00  0.00    +0.124 C 
BRANCH  12  13
ATOM     13  N   UNL     1      36.634  -6.608  21.351  0.00  0.00    -0.305 NA
ATOM     14  C   UNL     1      36.377  -6.999  20.467  0.00  0.00    +0.104 C 
ATOM     15  C   UNL     1      37.180  -7.144  21.995  0.00  0.00    +0.104 C 
ENDBRANCH  12  13
ENDBRANCH  11  12
ENDBRANCH  10  11
ENDBRANCH   4  10
ENDBRANCH   1   7
BRANCH   1  16
ATOM     16  C   UNL     1      36.718  -0.150  18.775  0.00  0.00    -0.017 A 
ATOM     17  C   UNL     1      36.298   0.602  19.283  0.00  0.00    +0.012 A 
ATOM     18  C   UNL     1      36.808   1.448  19.437  0.00  0.00    +0.046 A 
ATOM     19  C   UNL     1      37.739   1.541  19.084  0.00  0.00    +0.117 A 
ATOM     20  C   UNL     1      38.159   0.789  18.576  0.00  0.00    +0.046 A 
ATOM     21  C   UNL     1      37.648  -0.056  18.421  0.00  0.00    +0.012 A 
BRANCH  19  22
ATOM     22  O   UNL     1      38.250   2.387  19.239  0.00  0.00    -0.507 OA
ATOM     23  H   UNL     1      38.712   2.399  19.652  0.00  0.00    +0.292 HD
ENDBRANCH  19  22
ENDBRANCH   1  16
BRANCH   2  24
ATOM     24  C   UNL     1      35.584  -0.349  17.139  0.00  0.00    -0.022 A 
ATOM     25  C   UNL     1      34.899   0.370  17.252  0.00  0.00    +0.008 A 
ATOM     26  C   UNL     1      34.843   1.116  16.588  0.00  0.00    +0.001 A 
ATOM     27  C   UNL     1      35.473   1.143  15.812  0.00  0.00    +0.000 A 
ATOM     28  C   UNL     1      36.159   0.424  15.699  0.00  0.00    +0.001 A 
ATOM     29  C   UNL     1      36.214  -0.322  16.363  0.00  0.00    +0.008 A 
ENDBRANCH   2  24
TORSDOF 8
ENDMDL
MODEL 6
REMARK VINA RESULT:      -7.6      3.242      5.182
REMARK  Name = 20227298
REMARK  11 active torsions:
REMARK  status: ('A' for Active; 'I' for Inactive)
REMARK    1  A    between atoms: O_1  and  C_11
REMARK    2  A    between atoms: O_1  and  C_14
REMARK    3  A    between atoms: O_2  and  C_23
REMARK    4  A    between atoms: N_3  and  C_12
REMARK    5  A    between atoms: N_3  and  C_24
REMARK    6  A    between atoms: N_3  and  C_25
REMARK    7  A    between atoms: C_4  and  C_5
REMARK    8  A    between atoms: C_4  and  C_7
REMARK    9  A    between atoms: C_6  and  C_8
REMARK   10  A    between atoms: C_6  and  C_13
REMARK   11  A    between atoms: C_12  and  C_14
REMARK                            x       y       z     vdW  Elec       q    Type
REMARK                         _______ _______ _______ _____ _____    ______ ____
ROOT
ATOM      1  C   UNL     1      37.817   0.074  17.966  0.00  0.00    -0.007 C 
ATOM      2  C   UNL     1      38.645  -0.483  17.889  0.00  0.00    -0.035 C 
ATOM      3  C   UNL     1      39.533  -0.043  17.759  0.00  0.00    +0.045 C 
ENDROOT
BRANCH   1   7
ATOM      4  C   UNL     1      38.002   3.064  17.807  0.00  0.00    +0.121 A 
ATOM      5  C   UNL     1      38.011   2.609  18.698  0.00  0.00    +0.046 A 
ATOM      6  C   UNL     1      37.949   1.612  18.751  0.00  0.00    +0.012 A 
ATOM      7  C   UNL     1      37.879   1.071  17.913  0.00  0.00    -0.017 A 
ATOM      8  C   UNL     1      37.870   1.526  17.023  0.00  0.00    +0.012 A 
ATOM      9  C   UNL     1      37.931   2.522  16.970  0.00  0.00    +0.046 A 
BRANCH   4  10
ATOM     10  O   UNL     1      38.063   4.061  17.754  0.00  0.00    -0.491 OA
BRANCH  10  11
ATOM     11  C   UNL     1      38.786   4.544  18.249  0.00  0.00    +0.244 C 
BRANCH  11  12
ATOM     12  C   UNL     1      38.883   5.534  18.149  0.00  0.00    +0.124 C 
BRANCH  12  13
ATOM     13  N   UNL     1      39.632   6.012  18.609  0.00  0.00    -0.305 NA
ATOM     14  C   UNL     1      40.512   6.124  18.147  0.00  0.00    +0.104 C 
ATOM     15  C   UNL     1      39.501   6.377  19.530  0.00  0.00    +0.104 C 
ENDBRANCH  12  13
ENDBRANCH  11  12
ENDBRANCH  10  11
ENDBRANCH   4  10
ENDBRANCH   1   7
BRANCH   1  16
ATOM     16  C   UNL     1      36.929  -0.366  18.096  0.00  0.00    -0.017 A 
ATOM     17  C   UNL     1      36.376  -0.621  17.302  0.00  0.00    +0.012 A 
ATOM     18  C   UNL     1      35.488  -1.061  17.432  0.00  0.00    +0.046 A 
ATOM     19  C   UNL     1      35.152  -1.246  18.356  0.00  0.00    +0.117 A 
ATOM     20  C   UNL     1      35.704  -0.991  19.149  0.00  0.00    +0.046 A 
ATOM     21  C   UNL     1      36.593  -0.551  19.020  0.00  0.00    +0.012 A 
BRANCH  19  22
ATOM     22  O   UNL     1      34.263  -1.686  18.486  0.00  0.00    -0.507 OA
ATOM     23  H   UNL     1      33.756  -1.445  18.223  0.00  0.00    +0.292 HD
ENDBRANCH  19  22
ENDBRANCH   1  16
BRANCH   2  24
ATOM     24  C   UNL     1      38.583  -1.479  17.942  0.00  0.00    -0.022 A 
ATOM     25  C   UNL     1      38.466  -2.018  17.108  0.00  0.00    +0.008 A 
ATOM     26  C   UNL     1      38.404  -3.015  17.161  0.00  0.00    +0.001 A 
ATOM     27  C   UNL     1      38.460  -3.473  18.048  0.00  0.00    +0.000 A 
ATOM     28  C   UNL     1      38.578  -2.934  18.882  0.00  0.00    +0.001 A 
ATOM     29  C   UNL     1      38.639  -1.937  18.829  0.00  0.00    +0.008 A 
ENDBRANCH   2  24
TORSDOF 8
ENDMDL
MODEL 7
REMARK VINA RESULT:      -7.6      3.302      6.340
REMARK  Name = 20227298
REMARK  11 active torsions:
REMARK  status: ('A' for Active; 'I' for Inactive)
REMARK    1  A    between atoms: O_1  and  C_11
REMARK    2  A    between atoms: O_1  and  C_14
REMARK    3  A    between atoms: O_2  and  C_23
REMARK    4  A    between atoms: N_3  and  C_12
REMARK    5  A    between atoms: N_3  and  C_24
REMARK    6  A    between atoms: N_3  and  C_25
REMARK    7  A    between atoms: C_4  and  C_5
REMARK    8  A    between atoms: C_4  and  C_7
REMARK    9  A    between atoms: C_6  and  C_8
REMARK   10  A    between atoms: C_6  and  C_13
REMARK   11  A    between atoms: C_12  and  C_14
REMARK                            x       y       z     vdW  Elec       q    Type
REMARK                         _______ _______ _______ _____ _____    ______ ____
ROOT
ATOM      1  C   UNL     1      36.480  -1.627  18.927  0.00  0.00    -0.007 C 
ATOM      2  C   UNL     1      36.535  -0.637  18.800  0.00  0.00    -0.035 C 
ATOM      3  C   UNL     1      35.850  -0.040  19.218  0.00  0.00    +0.045 C 
ENDROOT
BRANCH   1   7
ATOM      4  C   UNL     1      34.259  -2.809  20.562  0.00  0.00    +0.121 A 
ATOM      5  C   UNL     1      34.087  -2.517  19.621  0.00  0.00    +0.046 A 
ATOM      6  C   UNL     1      34.827  -2.124  19.076  0.00  0.00    +0.012 A 
ATOM      7  C   UNL     1      35.740  -2.021  19.472  0.00  0.00    -0.017 A 
ATOM      8  C   UNL     1      35.912  -2.312  20.413  0.00  0.00    +0.012 A 
ATOM      9  C   UNL     1      35.172  -2.706  20.958  0.00  0.00    +0.046 A 
BRANCH   4  10
ATOM     10  O   UNL     1      33.519  -3.202  21.107  0.00  0.00    -0.491 OA
BRANCH  10  11
ATOM     11  C   UNL     1      33.430  -2.966  22.074  0.00  0.00    +0.244 C 
BRANCH  11  12
ATOM     12  C   UNL     1      32.556  -3.095  22.542  0.00  0.00    +0.124 C 
BRANCH  12  13
ATOM     13  N   UNL     1      32.433  -2.756  23.475  0.00  0.00    -0.305 NA
ATOM     14  C   UNL     1      32.772  -3.291  24.249  0.00  0.00    +0.104 C 
ATOM     15  C   UNL     1      31.973  -1.883  23.634  0.00  0.00    +0.104 C 
ENDBRANCH  12  13
ENDBRANCH  11  12
ENDBRANCH  10  11
ENDBRANCH   4  10
ENDBRANCH   1   7
BRANCH   1  16
ATOM     16  C   UNL     1      37.165  -2.224  18.509  0.00  0.00    -0.017 A 
ATOM     17  C   UNL     1      38.004  -2.446  19.005  0.00  0.00    +0.012 A 
ATOM     18  C   UNL     1      38.689  -3.042  18.586  0.00  0.00    +0.046 A 
ATOM     19  C   UNL     1      38.535  -3.417  17.672  0.00  0.00    +0.117 A 
ATOM     20  C   UNL     1      37.695  -3.195  17.176  0.00  0.00    +0.046 A 
ATOM     21  C   UNL     1      37.010  -2.598  17.595  0.00  0.00    +0.012 A 
BRANCH  19  22
ATOM     22  O   UNL     1      39.220  -4.013  17.254  0.00  0.00    -0.507 OA
ATOM     23  H   UNL     1      39.547  -3.815  16.766  0.00  0.00    +0.292 HD
ENDBRANCH  19  22
ENDBRANCH   1  16
BRANCH   2  24
ATOM     24  C   UNL     1      37.275  -0.243  18.255  0.00  0.00    -0.022 A 
ATOM     25  C   UNL     1      37.157  -0.112  17.271  0.00  0.00    +0.008 A 
ATOM     26  C   UNL     1      37.897   0.282  16.726  0.00  0.00    +0.001 A 
ATOM     27  C   UNL     1      38.756   0.545  17.165  0.00  0.00    +0.000 A 
ATOM     28  C   UNL     1      38.874   0.414  18.150  0.00  0.00    +0.001 A 
ATOM     29  C   UNL     1      38.134   0.020  18.695  0.00  0.00    +0.008 A 
ENDBRANCH   2  24
TORSDOF 8
ENDMDL
MODEL 8
REMARK VINA RESULT:      -7.5      2.539      6.385
REMARK  Name = 20227298
REMARK  11 active torsions:
REMARK  status: ('A' for Active; 'I' for Inactive)
REMARK    1  A    between atoms: O_1  and  C_11
REMARK    2  A    between atoms: O_1  and  C_14
REMARK    3  A    between atoms: O_2  and  C_23
REMARK    4  A    between atoms: N_3  and  C_12
REMARK    5  A    between atoms: N_3  and  C_24
REMARK    6  A    between atoms: N_3  and  C_25
REMARK    7  A    between atoms: C_4  and  C_5
REMARK    8  A    between atoms: C_4  and  C_7
REMARK    9  A    between atoms: C_6  and  C_8
REMARK   10  A    between atoms: C_6  and  C_13
REMARK   11  A    between atoms: C_12  and  C_14
REMARK                            x       y       z     vdW  Elec       q    Type
REMARK                         _______ _______ _______ _____ _____    ______ ____
ROOT
ATOM      1  C   UNL     1      35.566  -0.698  17.330  0.00  0.00    -0.007 C 
ATOM      2  C   UNL     1      36.282  -0.776  18.023  0.00  0.00    -0.035 C 
ATOM      3  C   UNL     1      36.365  -1.613  18.565  0.00  0.00    +0.045 C 
ENDROOT
BRANCH   1   7
ATOM      4  C   UNL     1      33.664  -2.974  16.876  0.00  0.00    +0.121 A 
ATOM      5  C   UNL     1      34.511  -2.917  16.347  0.00  0.00    +0.046 A 
ATOM      6  C   UNL     1      35.145  -2.158  16.499  0.00  0.00    +0.012 A 
ATOM      7  C   UNL     1      34.932  -1.457  17.179  0.00  0.00    -0.017 A 
ATOM      8  C   UNL     1      34.085  -1.514  17.707  0.00  0.00    +0.012 A 
ATOM      9  C   UNL     1      33.451  -2.272  17.556  0.00  0.00    +0.046 A 
BRANCH   4  10
ATOM     10  O   UNL     1      33.030  -3.732  16.724  0.00  0.00    -0.491 OA
BRANCH  10  11
ATOM     11  C   UNL     1      33.283  -4.658  17.005  0.00  0.00    +0.244 C 
BRANCH  11  12
ATOM     12  C   UNL     1      32.594  -5.384  17.012  0.00  0.00    +0.124 C 
BRANCH  12  13
ATOM     13  N   UNL     1      32.877  -6.340  17.085  0.00  0.00    -0.305 NA
ATOM     14  C   UNL     1      32.419  -7.040  16.536  0.00  0.00    +0.104 C 
ATOM     15  C   UNL     1      33.616  -6.597  17.707  0.00  0.00    +0.104 C 
ENDBRANCH  12  13
ENDBRANCH  11  12
ENDBRANCH  10  11
ENDBRANCH   4  10
ENDBRANCH   1   7
BRANCH   1  16
ATOM     16  C   UNL     1      35.483   0.138  16.788  0.00  0.00    -0.017 A 
ATOM     17  C   UNL     1      35.965   0.218  15.916  0.00  0.00    +0.012 A 
ATOM     18  C   UNL     1      35.882   1.055  15.374  0.00  0.00    +0.046 A 
ATOM     19  C   UNL     1      35.318   1.811  15.705  0.00  0.00    +0.117 A 
ATOM     20  C   UNL     1      34.837   1.731  16.578  0.00  0.00    +0.046 A 
ATOM     21  C   UNL     1      34.919   0.894  17.119  0.00  0.00    +0.012 A 
BRANCH  19  22
ATOM     22  O   UNL     1      35.235   2.647  15.163  0.00  0.00    -0.507 OA
ATOM     23  H   UNL     1      35.346   2.634  14.553  0.00  0.00    +0.292 HD
ENDBRANCH  19  22
ENDBRANCH   1  16
BRANCH   2  24
ATOM     24  C   UNL     1      36.916  -0.018  18.175  0.00  0.00    -0.022 A 
ATOM     25  C   UNL     1      36.701   0.686  18.851  0.00  0.00    +0.008 A 
ATOM     26  C   UNL     1      37.335   1.445  19.003  0.00  0.00    +0.001 A 
ATOM     27  C   UNL     1      38.184   1.499  18.478  0.00  0.00    +0.000 A 
ATOM     28  C   UNL     1      38.399   0.795  17.801  0.00  0.00    +0.001 A 
ATOM     29  C   UNL     1      37.765   0.036  17.650  0.00  0.00    +0.008 A 
ENDBRANCH   2  24
TORSDOF 8
ENDMDL
MODEL 9
REMARK VINA RESULT:      -7.5      1.927      3.169
REMARK  Name = 20227298
REMARK  11 active torsions:
REMARK  status: ('A' for Active; 'I' for Inactive)
REMARK    1  A    between atoms: O_1  and  C_11
REMARK    2  A    between atoms: O_1  and  C_14
REMARK    3  A    between atoms: O_2  and  C_23
REMARK    4  A    between atoms: N_3  and  C_12
REMARK    5  A    between atoms: N_3  and  C_24
REMARK    6  A    between atoms: N_3  and  C_25
REMARK    7  A    between atoms: C_4  and  C_5
REMARK    8  A    between atoms: C_4  and  C_7
REMARK    9  A    between atoms: C_6  and  C_8
REMARK   10  A    between atoms: C_6  and  C_13
REMARK   11  A    between atoms: C_12  and  C_14
REMARK                            x       y       z     vdW  Elec       q    Type
REMARK                         _______ _______ _______ _____ _____    ______ ____
ROOT
ATOM      1  C   UNL     1      33.811  -3.054  17.210  0.00  0.00    -0.007 C 
ATOM      2  C   UNL     1      33.298  -2.350  17.702  0.00  0.00    -0.035 C 
ATOM      3  C   UNL     1      33.728  -1.472  17.910  0.00  0.00    +0.045 C 
ENDROOT
BRANCH   1   7
ATOM      4  C   UNL     1      36.638  -2.527  16.356  0.00  0.00    +0.121 A 
ATOM      5  C   UNL     1      36.454  -2.924  17.254  0.00  0.00    +0.046 A 
ATOM      6  C   UNL     1      35.511  -3.100  17.539  0.00  0.00    +0.012 A 
ATOM      7  C   UNL     1      34.754  -2.878  16.925  0.00  0.00    -0.017 A 
ATOM      8  C   UNL     1      34.939  -2.481  16.026  0.00  0.00    +0.012 A 
ATOM      9  C   UNL     1      35.881  -2.305  15.741  0.00  0.00    +0.046 A 
BRANCH   4  10
ATOM     10  O   UNL     1      37.581  -2.351  16.071  0.00  0.00    -0.491 OA
BRANCH  10  11
ATOM     11  C   UNL     1      38.024  -1.488  16.313  0.00  0.00    +0.244 C 
BRANCH  11  12
ATOM     12  C   UNL     1      39.010  -1.379  16.185  0.00  0.00    +0.124 C 
BRANCH  12  13
ATOM     13  N   UNL     1      39.440  -0.492  16.352  0.00  0.00    -0.305 NA
ATOM     14  C   UNL     1      39.907  -0.015  15.608  0.00  0.00    +0.104 C 
ATOM     15  C   UNL     1      39.404  -0.082  17.264  0.00  0.00    +0.104 C 
ENDBRANCH  12  13
ENDBRANCH  11  12
ENDBRANCH  10  11
ENDBRANCH   4  10
ENDBRANCH   1   7
BRANCH   1  16
ATOM     16  C   UNL     1      33.382  -3.933  17.002  0.00  0.00    -0.017 A 
ATOM     17  C   UNL     1      32.861  -4.047  16.156  0.00  0.00    +0.012 A 
ATOM     18  C   UNL     1      32.431  -4.926  15.949  0.00  0.00    +0.046 A 
ATOM     19  C   UNL     1      32.523  -5.690  16.587  0.00  0.00    +0.117 A 
ATOM     20  C   UNL     1      33.043  -5.576  17.433  0.00  0.00    +0.046 A 
ATOM     21  C   UNL     1      33.473  -4.697  17.640  0.00  0.00    +0.012 A 
BRANCH  19  22
ATOM     22  O   UNL     1      32.093  -6.569  16.379  0.00  0.00    -0.507 OA
ATOM     23  H   UNL     1      32.287  -7.084  16.665  0.00  0.00    +0.292 HD
ENDBRANCH  19  22
ENDBRANCH   1  16
BRANCH   2  24
ATOM     24  C   UNL     1      32.356  -2.526  17.987  0.00  0.00    -0.022 A 
ATOM     25  C   UNL     1      32.174  -2.984  18.857  0.00  0.00    +0.008 A 
ATOM     26  C   UNL     1      31.231  -3.160  19.141  0.00  0.00    +0.001 A 
ATOM     27  C   UNL     1      30.471  -2.877  18.556  0.00  0.00    +0.000 A 
ATOM     28  C   UNL     1      30.654  -2.419  17.686  0.00  0.00    +0.001 A 
ATOM     29  C   UNL     1      31.596  -2.243  17.402  0.00  0.00    +0.008 A 
ENDBRANCH   2  24
TORSDOF 8
ENDMDL
MODEL 10
REMARK VINA RESULT:      -7.4      5.152     11.407
REMARK  Name = 20227298
REMARK  11 active torsions:
REMARK  status: ('A' for Active; 'I' for Inactive)
REMARK    1  A    between atoms: O_1  and  C_11
REMARK    2  A    between atoms: O_1  and  C_14
REMARK    3  A    between atoms: O_2  and  C_23
REMARK    4  A    between atoms: N_3  and  C_12
REMARK    5  A    between atoms: N_3  and  C_24
REMARK    6  A    between atoms: N_3  and  C_25
REMARK    7  A    between atoms: C_4  and  C_5
REMARK    8  A    between atoms: C_4  and  C_7
REMARK    9  A    between atoms: C_6  and  C_8
REMARK   10  A    between atoms: C_6  and  C_13
REMARK   11  A    between atoms: C_12  and  C_14
REMARK                            x       y       z     vdW  Elec       q    Type
REMARK                         _______ _______ _______ _____ _____    ______ ____
ROOT
ATOM      1  C   UNL     1      39.532   6.505  18.642  0.00  0.00    -0.007 C 
ATOM      2  C   UNL     1      38.958   7.310  18.787  0.00  0.00    -0.035 C 
ATOM      3  C   UNL     1      38.012   7.316  18.461  0.00  0.00    +0.045 C 
ENDROOT
BRANCH   1   7
ATOM      4  C   UNL     1      38.420   4.104  17.228  0.00  0.00    +0.121 A 
ATOM      5  C   UNL     1      38.768   4.879  16.700  0.00  0.00    +0.046 A 
ATOM      6  C   UNL     1      39.139   5.679  17.172  0.00  0.00    +0.012 A 
ATOM      7  C   UNL     1      39.162   5.705  18.171  0.00  0.00    -0.017 A 
ATOM      8  C   UNL     1      38.814   4.930  18.699  0.00  0.00    +0.012 A 
ATOM      9  C   UNL     1      38.443   4.130  18.228  0.00  0.00    +0.046 A 
BRANCH   4  10
ATOM     10  O   UNL     1      38.050   3.304  16.757  0.00  0.00    -0.491 OA
BRANCH  10  11
ATOM     11  C   UNL     1      37.062   3.149  16.735  0.00  0.00    +0.244 C 
BRANCH  11  12
ATOM     12  C   UNL     1      36.697   2.297  16.360  0.00  0.00    +0.124 C 
BRANCH  12  13
ATOM     13  N   UNL     1      35.724   2.086  16.452  0.00  0.00    -0.305 NA
ATOM     14  C   UNL     1      35.434   1.275  16.958  0.00  0.00    +0.104 C 
ATOM     15  C   UNL     1      35.041   2.687  16.036  0.00  0.00    +0.104 C 
ENDBRANCH  12  13
ENDBRANCH  11  12
ENDBRANCH  10  11
ENDBRANCH   4  10
ENDBRANCH   1   7
BRANCH   1  16
ATOM     16  C   UNL     1      40.477   6.500  18.969  0.00  0.00    -0.017 A 
ATOM     17  C   UNL     1      40.680   6.223  19.908  0.00  0.00    +0.012 A 
ATOM     18  C   UNL     1      41.626   6.218  20.234  0.00  0.00    +0.046 A 
ATOM     19  C   UNL     1      42.368   6.489  19.622  0.00  0.00    +0.117 A 
ATOM     20  C   UNL     1      42.165   6.766  18.682  0.00  0.00    +0.046 A 
ATOM     21  C   UNL     1      41.219   6.771  18.356  0.00  0.00    +0.012 A 
BRANCH  19  22
ATOM     22  O   UNL     1      43.313   6.484  19.948  0.00  0.00    -0.507 OA
ATOM     23  H   UNL     1      43.452   6.735  20.498  0.00  0.00    +0.292 HD
ENDBRANCH  19  22
ENDBRANCH   1  16
BRANCH   2  24
ATOM     24  C   UNL     1      39.328   8.111  19.258  0.00  0.00    -0.022 A 
ATOM     25  C   UNL     1      39.230   8.197  20.250  0.00  0.00    +0.008 A 
ATOM     26  C   UNL     1      39.600   8.998  20.721  0.00  0.00    +0.001 A 
ATOM     27  C   UNL     1      40.069   9.711  20.201  0.00  0.00    +0.000 A 
ATOM     28  C   UNL     1      40.168   9.625  19.210  0.00  0.00    +0.001 A 
ATOM     29  C   UNL     1      39.797   8.824  18.738  0.00  0.00    +0.008 A 
ENDBRANCH   2  24
TORSDOF 8
ENDMDL
