MODEL 1
REMARK VINA RESULT:      -9.3      0.000      0.000
REMARK  Name = 192969
REMARK  11 active torsions:
REMARK  status: ('A' for Active; 'I' for Inactive)
REMARK    1  A    between atoms: O_1  and  C_6
REMARK    2  A    between atoms: O_1  and  C_10
REMARK    3  A    between atoms: N_2  and  C_3
REMARK    4  A    between atoms: N_2  and  C_4
REMARK    5  A    between atoms: N_2  and  C_5
REMARK    6  A    between atoms: C_3  and  C_6
REMARK    7  A    between atoms: C_4  and  C_7
REMARK    8  A    between atoms: C_5  and  C_8
REMARK    9  A    between atoms: C_9  and  C_11
REMARK   10  A    between atoms: C_11  and  C_16
REMARK   11  A    between atoms: C_17  and  C_18
REMARK                            x       y       z     vdW  Elec       q    Type
REMARK                         _______ _______ _______ _____ _____    ______ ____
ROOT
ATOM      1  C   UNL     1      31.829  -2.023  24.585  0.00  0.00    +0.121 A 
ATOM      2  C   UNL     1      31.122  -1.331  24.439  0.00  0.00    +0.046 A 
ATOM      3  C   UNL     1      30.369  -1.240  25.091  0.00  0.00    +0.012 A 
ATOM      4  C   UNL     1      30.324  -1.841  25.889  0.00  0.00    -0.017 A 
ATOM      5  C   UNL     1      31.030  -2.533  26.035  0.00  0.00    +0.012 A 
ATOM      6  C   UNL     1      31.783  -2.624  25.382  0.00  0.00    +0.046 A 
ENDROOT
BRANCH   4   7
ATOM      7  C   UNL     1      29.571  -1.750  26.541  0.00  0.00    -0.010 C 
ATOM      8  C   UNL     1      28.740  -2.294  26.425  0.00  0.00    +0.017 C 
BRANCH   8   9
ATOM      9  C   UNL     1      27.987  -2.203  27.077  0.00  0.00    -0.024 A 
ATOM     10  C   UNL     1      27.956  -2.786  27.889  0.00  0.00    +0.008 A 
ATOM     11  C   UNL     1      27.204  -2.695  28.541  0.00  0.00    +0.001 A 
ATOM     12  C   UNL     1      26.482  -2.021  28.381  0.00  0.00    +0.000 A 
ATOM     13  C   UNL     1      26.513  -1.438  27.570  0.00  0.00    +0.001 A 
ATOM     14  C   UNL     1      27.266  -1.529  26.917  0.00  0.00    +0.008 A 
ENDBRANCH   8   9
BRANCH   7  15
ATOM     15  C   UNL     1      29.650  -1.116  27.310  0.00  0.00    -0.017 A 
ATOM     16  C   UNL     1      29.347  -0.168  27.210  0.00  0.00    +0.008 A 
ATOM     17  C   UNL     1      29.426   0.466  27.978  0.00  0.00    +0.001 A 
ATOM     18  C   UNL     1      29.807   0.153  28.848  0.00  0.00    +0.000 A 
ATOM     19  C   UNL     1      30.109  -0.795  28.949  0.00  0.00    +0.001 A 
ATOM     20  C   UNL     1      30.031  -1.429  28.180  0.00  0.00    +0.008 A 
ENDBRANCH   7  15
ENDBRANCH   4   7
BRANCH   1  21
ATOM     21  O   UNL     1      32.581  -2.114  23.932  0.00  0.00    -0.491 OA
BRANCH  21  22
ATOM     22  C   UNL     1      32.424  -2.546  23.044  0.00  0.00    +0.244 C 
BRANCH  22  23
ATOM     23  C   UNL     1      33.199  -2.872  22.502  0.00  0.00    +0.125 C 
BRANCH  23  24
ATOM     24  N   UNL     1      33.075  -3.089  21.534  0.00  0.00    -0.300 NA
BRANCH  24  25
ATOM     25  C   UNL     1      32.241  -3.548  21.227  0.00  0.00    +0.081 C 
ATOM     26  C   UNL     1      31.938  -3.452  20.279  0.00  0.00    +0.020 C 
ENDBRANCH  24  25
BRANCH  24  27
ATOM     27  C   UNL     1      33.785  -2.848  20.873  0.00  0.00    +0.081 C 
ATOM     28  C   UNL     1      34.746  -3.033  21.081  0.00  0.00    +0.020 C 
ENDBRANCH  24  27
ENDBRANCH  23  24
ENDBRANCH  22  23
ENDBRANCH  21  22
ENDBRANCH   1  21
TORSDOF 9
ENDMDL
MODEL 2
REMARK VINA RESULT:      -9.0      3.218      4.130
REMARK  Name = 192969
REMARK  11 active torsions:
REMARK  status: ('A' for Active; 'I' for Inactive)
REMARK    1  A    between atoms: O_1  and  C_6
REMARK    2  A    between atoms: O_1  and  C_10
REMARK    3  A    between atoms: N_2  and  C_3
REMARK    4  A    between atoms: N_2  and  C_4
REMARK    5  A    between atoms: N_2  and  C_5
REMARK    6  A    between atoms: C_3  and  C_6
REMARK    7  A    between atoms: C_4  and  C_7
REMARK    8  A    between atoms: C_5  and  C_8
REMARK    9  A    between atoms: C_9  and  C_11
REMARK   10  A    between atoms: C_11  and  C_16
REMARK   11  A    between atoms: C_17  and  C_18
REMARK                            x       y       z     vdW  Elec       q    Type
REMARK                         _______ _______ _______ _____ _____    ______ ____
ROOT
ATOM      1  C   UNL     1      32.542  -1.429  27.542  0.00  0.00    +0.121 A 
ATOM      2  C   UNL     1      32.001  -1.805  26.790  0.00  0.00    +0.046 A 
ATOM      3  C   UNL     1      31.002  -1.799  26.841  0.00  0.00    +0.012 A 
ATOM      4  C   UNL     1      30.545  -1.416  27.644  0.00  0.00    -0.017 A 
ATOM      5  C   UNL     1      31.086  -1.040  28.395  0.00  0.00    +0.012 A 
ATOM      6  C   UNL     1      32.085  -1.046  28.344  0.00  0.00    +0.046 A 
ENDROOT
BRANCH   4   7
ATOM      7  C   UNL     1      29.546  -1.410  27.694  0.00  0.00    -0.010 C 
ATOM      8  C   UNL     1      29.057  -2.222  28.011  0.00  0.00    +0.017 C 
BRANCH   8   9
ATOM      9  C   UNL     1      28.058  -2.216  28.062  0.00  0.00    -0.024 A 
ATOM     10  C   UNL     1      27.515  -2.515  27.277  0.00  0.00    +0.008 A 
ATOM     11  C   UNL     1      26.517  -2.508  27.328  0.00  0.00    +0.001 A 
ATOM     12  C   UNL     1      26.061  -2.204  28.164  0.00  0.00    +0.000 A 
ATOM     13  C   UNL     1      26.603  -1.905  28.949  0.00  0.00    +0.001 A 
ATOM     14  C   UNL     1      27.602  -1.911  28.898  0.00  0.00    +0.008 A 
ENDBRANCH   8   9
BRANCH   7  15
ATOM     15  C   UNL     1      29.037  -0.591  27.429  0.00  0.00    -0.017 A 
ATOM     16  C   UNL     1      28.817   0.104  28.112  0.00  0.00    +0.008 A 
ATOM     17  C   UNL     1      28.308   0.923  27.847  0.00  0.00    +0.001 A 
ATOM     18  C   UNL     1      28.019   1.046  26.897  0.00  0.00    +0.000 A 
ATOM     19  C   UNL     1      28.239   0.350  26.214  0.00  0.00    +0.001 A 
ATOM     20  C   UNL     1      28.748  -0.468  26.479  0.00  0.00    +0.008 A 
ENDBRANCH   7  15
ENDBRANCH   4   7
BRANCH   1  21
ATOM     21  O   UNL     1      33.541  -1.435  27.491  0.00  0.00    -0.491 OA
BRANCH  21  22
ATOM     22  C   UNL     1      34.058  -0.608  27.710  0.00  0.00    +0.244 C 
BRANCH  22  23
ATOM     23  C   UNL     1      34.590  -0.147  27.000  0.00  0.00    +0.125 C 
BRANCH  23  24
ATOM     24  N   UNL     1      34.660   0.851  26.995  0.00  0.00    -0.300 NA
BRANCH  24  25
ATOM     25  C   UNL     1      35.173   1.319  27.714  0.00  0.00    +0.081 C 
ATOM     26  C   UNL     1      36.170   1.374  27.662  0.00  0.00    +0.020 C 
ENDBRANCH  24  25
BRANCH  24  27
ATOM     27  C   UNL     1      34.217   1.380  26.271  0.00  0.00    +0.081 C 
ATOM     28  C   UNL     1      33.380   1.891  26.467  0.00  0.00    +0.020 C 
ENDBRANCH  24  27
ENDBRANCH  23  24
ENDBRANCH  22  23
ENDBRANCH  21  22
ENDBRANCH   1  21
TORSDOF 9
ENDMDL
MODEL 3
REMARK VINA RESULT:      -9.0      2.572      3.599
REMARK  Name = 192969
REMARK  11 active torsions:
REMARK  status: ('A' for Active; 'I' for Inactive)
REMARK    1  A    between atoms: O_1  and  C_6
REMARK    2  A    between atoms: O_1  and  C_10
REMARK    3  A    between atoms: N_2  and  C_3
REMARK    4  A    between atoms: N_2  and  C_4
REMARK    5  A    between atoms: N_2  and  C_5
REMARK    6  A    between atoms: C_3  and  C_6
REMARK    7  A    between atoms: C_4  and  C_7
REMARK    8  A    between atoms: C_5  and  C_8
REMARK    9  A    between atoms: C_9  and  C_11
REMARK   10  A    between atoms: C_11  and  C_16
REMARK   11  A    between atoms: C_17  and  C_18
REMARK                            x       y       z     vdW  Elec       q    Type
REMARK                         _______ _______ _______ _____ _____    ______ ____
ROOT
ATOM      1  C   UNL     1      32.391  -2.537  23.799  0.00  0.00    +0.121 A 
ATOM      2  C   UNL     1      31.899  -1.670  23.723  0.00  0.00    +0.046 A 
ATOM      3  C   UNL     1      31.855  -1.049  24.506  0.00  0.00    +0.012 A 
ATOM      4  C   UNL     1      32.303  -1.296  25.365  0.00  0.00    -0.017 A 
ATOM      5  C   UNL     1      32.796  -2.163  25.441  0.00  0.00    +0.012 A 
ATOM      6  C   UNL     1      32.840  -2.783  24.658  0.00  0.00    +0.046 A 
ENDROOT
BRANCH   4   7
ATOM      7  C   UNL     1      32.259  -0.675  26.148  0.00  0.00    -0.010 C 
ATOM      8  C   UNL     1      31.462  -0.687  26.751  0.00  0.00    +0.017 C 
BRANCH   8   9
ATOM      9  C   UNL     1      31.418  -0.067  27.534  0.00  0.00    -0.024 A 
ATOM     10  C   UNL     1      31.020   0.845  27.428  0.00  0.00    +0.008 A 
ATOM     11  C   UNL     1      30.976   1.465  28.211  0.00  0.00    +0.001 A 
ATOM     12  C   UNL     1      31.330   1.174  29.100  0.00  0.00    +0.000 A 
ATOM     13  C   UNL     1      31.727   0.263  29.206  0.00  0.00    +0.001 A 
ATOM     14  C   UNL     1      31.771  -0.358  28.423  0.00  0.00    +0.008 A 
ENDBRANCH   8   9
BRANCH   7  15
ATOM     15  C   UNL     1      33.013  -0.043  26.328  0.00  0.00    -0.017 A 
ATOM     16  C   UNL     1      33.771  -0.324  26.916  0.00  0.00    +0.008 A 
ATOM     17  C   UNL     1      34.525   0.308  27.097  0.00  0.00    +0.001 A 
ATOM     18  C   UNL     1      34.521   1.220  26.689  0.00  0.00    +0.000 A 
ATOM     19  C   UNL     1      33.762   1.501  26.100  0.00  0.00    +0.001 A 
ATOM     20  C   UNL     1      33.008   0.869  25.920  0.00  0.00    +0.008 A 
ENDBRANCH   7  15
ENDBRANCH   4   7
BRANCH   1  21
ATOM     21  O   UNL     1      32.435  -3.157  23.016  0.00  0.00    -0.491 OA
BRANCH  21  22
ATOM     22  C   UNL     1      32.992  -2.919  22.220  0.00  0.00    +0.244 C 
BRANCH  22  23
ATOM     23  C   UNL     1      32.915  -3.453  21.378  0.00  0.00    +0.125 C 
BRANCH  23  24
ATOM     24  N   UNL     1      33.298  -3.099  20.525  0.00  0.00    -0.300 NA
BRANCH  24  25
ATOM     25  C   UNL     1      34.112  -2.518  20.545  0.00  0.00    +0.081 C 
ATOM     26  C   UNL     1      34.884  -2.718  19.942  0.00  0.00    +0.020 C 
ENDBRANCH  24  25
BRANCH  24  27
ATOM     27  C   UNL     1      32.867  -3.326  19.651  0.00  0.00    +0.081 C 
ATOM     28  C   UNL     1      31.870  -3.337  19.573  0.00  0.00    +0.020 C 
ENDBRANCH  24  27
ENDBRANCH  23  24
ENDBRANCH  22  23
ENDBRANCH  21  22
ENDBRANCH   1  21
TORSDOF 9
ENDMDL
MODEL 4
REMARK VINA RESULT:      -8.9      1.111      2.212
REMARK  Name = 192969
REMARK  11 active torsions:
REMARK  status: ('A' for Active; 'I' for Inactive)
REMARK    1  A    between atoms: O_1  and  C_6
REMARK    2  A    between atoms: O_1  and  C_10
REMARK    3  A    between atoms: N_2  and  C_3
REMARK    4  A    between atoms: N_2  and  C_4
REMARK    5  A    between atoms: N_2  and  C_5
REMARK    6  A    between atoms: C_3  and  C_6
REMARK    7  A    between atoms: C_4  and  C_7
REMARK    8  A    between atoms: C_5  and  C_8
REMARK    9  A    between atoms: C_9  and  C_11
REMARK   10  A    between atoms: C_11  and  C_16
REMARK   11  A    between atoms: C_17  and  C_18
REMARK                            x       y       z     vdW  Elec       q    Type
REMARK                         _______ _______ _______ _____ _____    ______ ____
ROOT
ATOM      1  C   UNL     1      32.436  -2.526  24.839  0.00  0.00    +0.121 A 
ATOM      2  C   UNL     1      31.811  -1.917  24.350  0.00  0.00    +0.046 A 
ATOM      3  C   UNL     1      31.034  -1.509  24.829  0.00  0.00    +0.012 A 
ATOM      4  C   UNL     1      30.881  -1.710  25.797  0.00  0.00    -0.017 A 
ATOM      5  C   UNL     1      31.506  -2.319  26.285  0.00  0.00    +0.012 A 
ATOM      6  C   UNL     1      32.283  -2.727  25.807  0.00  0.00    +0.046 A 
ENDROOT
BRANCH   4   7
ATOM      7  C   UNL     1      30.104  -1.303  26.275  0.00  0.00    -0.010 C 
ATOM      8  C   UNL     1      30.124  -0.336  26.530  0.00  0.00    +0.017 C 
BRANCH   8   9
ATOM      9  C   UNL     1      29.347   0.072  27.008  0.00  0.00    -0.024 A 
ATOM     10  C   UNL     1      28.604   0.492  26.488  0.00  0.00    +0.008 A 
ATOM     11  C   UNL     1      27.826   0.900  26.967  0.00  0.00    +0.001 A 
ATOM     12  C   UNL     1      27.792   0.887  27.966  0.00  0.00    +0.000 A 
ATOM     13  C   UNL     1      28.535   0.467  28.486  0.00  0.00    +0.001 A 
ATOM     14  C   UNL     1      29.312   0.059  28.008  0.00  0.00    +0.008 A 
ENDBRANCH   8   9
BRANCH   7  15
ATOM     15  C   UNL     1      29.305  -1.862  26.500  0.00  0.00    -0.017 A 
ATOM     16  C   UNL     1      28.544  -1.928  25.855  0.00  0.00    +0.008 A 
ATOM     17  C   UNL     1      27.746  -2.488  26.079  0.00  0.00    +0.001 A 
ATOM     18  C   UNL     1      27.709  -2.980  26.949  0.00  0.00    +0.000 A 
ATOM     19  C   UNL     1      28.471  -2.914  27.594  0.00  0.00    +0.001 A 
ATOM     20  C   UNL     1      29.269  -2.354  27.369  0.00  0.00    +0.008 A 
ENDBRANCH   7  15
ENDBRANCH   4   7
BRANCH   1  21
ATOM     21  O   UNL     1      33.214  -2.934  24.360  0.00  0.00    -0.491 OA
BRANCH  21  22
ATOM     22  C   UNL     1      33.069  -3.433  23.506  0.00  0.00    +0.244 C 
BRANCH  22  23
ATOM     23  C   UNL     1      33.836  -3.895  23.061  0.00  0.00    +0.125 C 
BRANCH  23  24
ATOM     24  N   UNL     1      33.828  -4.036  22.071  0.00  0.00    -0.300 NA
BRANCH  24  25
ATOM     25  C   UNL     1      32.979  -4.293  21.609  0.00  0.00    +0.081 C 
ATOM     26  C   UNL     1      32.797  -3.968  20.681  0.00  0.00    +0.020 C 
ENDBRANCH  24  25
BRANCH  24  27
ATOM     27  C   UNL     1      34.669  -3.922  21.543  0.00  0.00    +0.081 C 
ATOM     28  C   UNL     1      35.549  -4.185  21.940  0.00  0.00    +0.020 C 
ENDBRANCH  24  27
ENDBRANCH  23  24
ENDBRANCH  22  23
ENDBRANCH  21  22
ENDBRANCH   1  21
TORSDOF 9
ENDMDL
MODEL 5
REMARK VINA RESULT:      -7.9      7.618      9.702
REMARK  Name = 192969
REMARK  11 active torsions:
REMARK  status: ('A' for Active; 'I' for Inactive)
REMARK    1  A    between atoms: O_1  and  C_6
REMARK    2  A    between atoms: O_1  and  C_10
REMARK    3  A    between atoms: N_2  and  C_3
REMARK    4  A    between atoms: N_2  and  C_4
REMARK    5  A    between atoms: N_2  and  C_5
REMARK    6  A    between atoms: C_3  and  C_6
REMARK    7  A    between atoms: C_4  and  C_7
REMARK    8  A    between atoms: C_5  and  C_8
REMARK    9  A    between atoms: C_9  and  C_11
REMARK   10  A    between atoms: C_11  and  C_16
REMARK   11  A    between atoms: C_17  and  C_18
REMARK                            x       y       z     vdW  Elec       q    Type
REMARK                         _______ _______ _______ _____ _____    ______ ____
ROOT
ATOM      1  C   UNL     1      35.362  -0.515  18.818  0.00  0.00    +0.121 A 
ATOM      2  C   UNL     1      34.983  -0.470  17.894  0.00  0.00    +0.046 A 
ATOM      3  C   UNL     1      34.387  -1.201  17.561  0.00  0.00    +0.012 A 
ATOM      4  C   UNL     1      34.171  -1.978  18.153  0.00  0.00    -0.017 A 
ATOM      5  C   UNL     1      34.551  -2.023  19.077  0.00  0.00    +0.012 A 
ATOM      6  C   UNL     1      35.146  -1.292  19.410  0.00  0.00    +0.046 A 
ENDROOT
BRANCH   4   7
ATOM      7  C   UNL     1      33.576  -2.709  17.820  0.00  0.00    -0.010 C 
ATOM      8  C   UNL     1      33.958  -3.457  17.278  0.00  0.00    +0.017 C 
BRANCH   8   9
ATOM      9  C   UNL     1      33.363  -4.188  16.945  0.00  0.00    -0.024 A 
ATOM     10  C   UNL     1      32.903  -4.096  16.062  0.00  0.00    +0.008 A 
ATOM     11  C   UNL     1      32.307  -4.827  15.729  0.00  0.00    +0.001 A 
ATOM     12  C   UNL     1      32.172  -5.651  16.279  0.00  0.00    +0.000 A 
ATOM     13  C   UNL     1      32.631  -5.743  17.162  0.00  0.00    +0.001 A 
ATOM     14  C   UNL     1      33.227  -5.012  17.495  0.00  0.00    +0.008 A 
ENDBRANCH   8   9
BRANCH   7  15
ATOM     15  C   UNL     1      32.598  -2.692  18.030  0.00  0.00    -0.017 A 
ATOM     16  C   UNL     1      31.966  -2.207  17.426  0.00  0.00    +0.008 A 
ATOM     17  C   UNL     1      30.988  -2.190  17.636  0.00  0.00    +0.001 A 
ATOM     18  C   UNL     1      30.643  -2.659  18.449  0.00  0.00    +0.000 A 
ATOM     19  C   UNL     1      31.276  -3.144  19.053  0.00  0.00    +0.001 A 
ATOM     20  C   UNL     1      32.253  -3.161  18.843  0.00  0.00    +0.008 A 
ENDBRANCH   7  15
ENDBRANCH   4   7
BRANCH   1  21
ATOM     21  O   UNL     1      35.957   0.216  19.151  0.00  0.00    -0.491 OA
BRANCH  21  22
ATOM     22  C   UNL     1      36.931   0.211  18.923  0.00  0.00    +0.244 C 
BRANCH  22  23
ATOM     23  C   UNL     1      37.452   1.064  18.936  0.00  0.00    +0.125 C 
BRANCH  23  24
ATOM     24  N   UNL     1      38.201   1.203  18.288  0.00  0.00    -0.300 NA
BRANCH  24  25
ATOM     25  C   UNL     1      38.339   2.100  17.869  0.00  0.00    +0.081 C 
ATOM     26  C   UNL     1      38.154   2.931  18.393  0.00  0.00    +0.020 C 
ENDBRANCH  24  25
BRANCH  24  27
ATOM     27  C   UNL     1      38.811   0.444  18.059  0.00  0.00    +0.081 C 
ATOM     28  C   UNL     1      39.170   0.354  17.130  0.00  0.00    +0.020 C 
ENDBRANCH  24  27
ENDBRANCH  23  24
ENDBRANCH  22  23
ENDBRANCH  21  22
ENDBRANCH   1  21
TORSDOF 9
ENDMDL
MODEL 6
REMARK VINA RESULT:      -7.8      3.576      7.856
REMARK  Name = 192969
REMARK  11 active torsions:
REMARK  status: ('A' for Active; 'I' for Inactive)
REMARK    1  A    between atoms: O_1  and  C_6
REMARK    2  A    between atoms: O_1  and  C_10
REMARK    3  A    between atoms: N_2  and  C_3
REMARK    4  A    between atoms: N_2  and  C_4
REMARK    5  A    between atoms: N_2  and  C_5
REMARK    6  A    between atoms: C_3  and  C_6
REMARK    7  A    between atoms: C_4  and  C_7
REMARK    8  A    between atoms: C_5  and  C_8
REMARK    9  A    between atoms: C_9  and  C_11
REMARK   10  A    between atoms: C_11  and  C_16
REMARK   11  A    between atoms: C_17  and  C_18
REMARK                            x       y       z     vdW  Elec       q    Type
REMARK                         _______ _______ _______ _____ _____    ______ ____
ROOT
ATOM      1  C   UNL     1      32.699  -2.585  24.217  0.00  0.00    +0.121 A 
ATOM      2  C   UNL     1      32.329  -2.202  23.370  0.00  0.00    +0.046 A 
ATOM      3  C   UNL     1      32.647  -2.544  22.486  0.00  0.00    +0.012 A 
ATOM      4  C   UNL     1      33.334  -3.270  22.448  0.00  0.00    -0.017 A 
ATOM      5  C   UNL     1      33.703  -3.653  23.294  0.00  0.00    +0.012 A 
ATOM      6  C   UNL     1      33.386  -3.311  24.179  0.00  0.00    +0.046 A 
ENDROOT
BRANCH   4   7
ATOM      7  C   UNL     1      33.651  -3.612  21.563  0.00  0.00    -0.010 C 
ATOM      8  C   UNL     1      33.195  -4.392  21.136  0.00  0.00    +0.017 C 
BRANCH   8   9
ATOM      9  C   UNL     1      33.512  -4.734  20.252  0.00  0.00    -0.024 A 
ATOM     10  C   UNL     1      34.206  -5.453  20.214  0.00  0.00    +0.008 A 
ATOM     11  C   UNL     1      34.523  -5.796  19.329  0.00  0.00    +0.001 A 
ATOM     12  C   UNL     1      34.147  -5.419  18.483  0.00  0.00    +0.000 A 
ATOM     13  C   UNL     1      33.453  -4.700  18.521  0.00  0.00    +0.001 A 
ATOM     14  C   UNL     1      33.136  -4.357  19.405  0.00  0.00    +0.008 A 
ENDBRANCH   8   9
BRANCH   7  15
ATOM     15  C   UNL     1      34.425  -3.174  21.106  0.00  0.00    -0.017 A 
ATOM     16  C   UNL     1      34.266  -2.432  20.455  0.00  0.00    +0.008 A 
ATOM     17  C   UNL     1      35.040  -1.994  19.998  0.00  0.00    +0.001 A 
ATOM     18  C   UNL     1      35.973  -2.297  20.192  0.00  0.00    +0.000 A 
ATOM     19  C   UNL     1      36.132  -3.039  20.844  0.00  0.00    +0.001 A 
ATOM     20  C   UNL     1      35.358  -3.477  21.301  0.00  0.00    +0.008 A 
ENDBRANCH   7  15
ENDBRANCH   4   7
BRANCH   1  21
ATOM     21  O   UNL     1      32.381  -2.243  25.101  0.00  0.00    -0.491 OA
BRANCH  21  22
ATOM     22  C   UNL     1      32.681  -1.346  25.427  0.00  0.00    +0.244 C 
BRANCH  22  23
ATOM     23  C   UNL     1      32.605  -1.116  26.397  0.00  0.00    +0.125 C 
BRANCH  23  24
ATOM     24  N   UNL     1      33.085  -0.317  26.760  0.00  0.00    -0.300 NA
BRANCH  24  25
ATOM     25  C   UNL     1      32.945   0.582  26.346  0.00  0.00    +0.081 C 
ATOM     26  C   UNL     1      33.711   1.218  26.260  0.00  0.00    +0.020 C 
ENDBRANCH  24  25
BRANCH  24  27
ATOM     27  C   UNL     1      33.706  -0.418  27.538  0.00  0.00    +0.081 C 
ATOM     28  C   UNL     1      33.378  -0.826  28.390  0.00  0.00    +0.020 C 
ENDBRANCH  24  27
ENDBRANCH  23  24
ENDBRANCH  22  23
ENDBRANCH  21  22
ENDBRANCH   1  21
TORSDOF 9
ENDMDL
MODEL 7
REMARK VINA RESULT:      -7.7     10.322     12.908
REMARK  Name = 192969
REMARK  11 active torsions:
REMARK  status: ('A' for Active; 'I' for Inactive)
REMARK    1  A    between atoms: O_1  and  C_6
REMARK    2  A    between atoms: O_1  and  C_10
REMARK    3  A    between atoms: N_2  and  C_3
REMARK    4  A    between atoms: N_2  and  C_4
REMARK    5  A    between atoms: N_2  and  C_5
REMARK    6  A    between atoms: C_3  and  C_6
REMARK    7  A    between atoms: C_4  and  C_7
REMARK    8  A    between atoms: C_5  and  C_8
REMARK    9  A    between atoms: C_9  and  C_11
REMARK   10  A    between atoms: C_11  and  C_16
REMARK   11  A    between atoms: C_17  and  C_18
REMARK                            x       y       z     vdW  Elec       q    Type
REMARK                         _______ _______ _______ _____ _____    ______ ____
ROOT
ATOM      1  C   UNL     1      38.319   3.768  17.856  0.00  0.00    +0.121 A 
ATOM      2  C   UNL     1      38.194   3.206  18.673  0.00  0.00    +0.046 A 
ATOM      3  C   UNL     1      38.121   2.212  18.590  0.00  0.00    +0.012 A 
ATOM      4  C   UNL     1      38.172   1.780  17.690  0.00  0.00    -0.017 A 
ATOM      5  C   UNL     1      38.296   2.342  16.872  0.00  0.00    +0.012 A 
ATOM      6  C   UNL     1      38.370   3.336  16.955  0.00  0.00    +0.046 A 
ENDROOT
BRANCH   4   7
ATOM      7  C   UNL     1      38.099   0.786  17.607  0.00  0.00    -0.010 C 
ATOM      8  C   UNL     1      38.914   0.215  17.699  0.00  0.00    +0.017 C 
BRANCH   8   9
ATOM      9  C   UNL     1      38.841  -0.778  17.616  0.00  0.00    -0.024 A 
ATOM     10  C   UNL     1      38.666  -1.336  18.428  0.00  0.00    +0.008 A 
ATOM     11  C   UNL     1      38.593  -2.330  18.345  0.00  0.00    +0.001 A 
ATOM     12  C   UNL     1      38.695  -2.766  17.450  0.00  0.00    +0.000 A 
ATOM     13  C   UNL     1      38.869  -2.208  16.639  0.00  0.00    +0.001 A 
ATOM     14  C   UNL     1      38.943  -1.214  16.722  0.00  0.00    +0.008 A 
ENDBRANCH   8   9
BRANCH   7  15
ATOM     15  C   UNL     1      37.210   0.363  17.432  0.00  0.00    -0.017 A 
ATOM     16  C   UNL     1      36.623   0.098  18.196  0.00  0.00    +0.008 A 
ATOM     17  C   UNL     1      35.734  -0.325  18.021  0.00  0.00    +0.001 A 
ATOM     18  C   UNL     1      35.432  -0.482  17.081  0.00  0.00    +0.000 A 
ATOM     19  C   UNL     1      36.019  -0.216  16.316  0.00  0.00    +0.001 A 
ATOM     20  C   UNL     1      36.908   0.206  16.491  0.00  0.00    +0.008 A 
ENDBRANCH   7  15
ENDBRANCH   4   7
BRANCH   1  21
ATOM     21  O   UNL     1      38.392   4.762  17.939  0.00  0.00    -0.491 OA
BRANCH  21  22
ATOM     22  C   UNL     1      39.075   5.164  18.549  0.00  0.00    +0.244 C 
BRANCH  22  23
ATOM     23  C   UNL     1      39.024   6.134  18.787  0.00  0.00    +0.125 C 
BRANCH  23  24
ATOM     24  N   UNL     1      39.665   6.520  19.450  0.00  0.00    -0.300 NA
BRANCH  24  25
ATOM     25  C   UNL     1      39.350   7.202  20.110  0.00  0.00    +0.081 C 
ATOM     26  C   UNL     1      38.659   7.874  19.843  0.00  0.00    +0.020 C 
ENDBRANCH  24  25
BRANCH  24  27
ATOM     27  C   UNL     1      40.620   6.224  19.454  0.00  0.00    +0.081 C 
ATOM     28  C   UNL     1      41.213   6.457  20.225  0.00  0.00    +0.020 C 
ENDBRANCH  24  27
ENDBRANCH  23  24
ENDBRANCH  22  23
ENDBRANCH  21  22
ENDBRANCH   1  21
TORSDOF 9
ENDMDL
MODEL 8
REMARK VINA RESULT:      -7.7      2.522      8.393
REMARK  Name = 192969
REMARK  11 active torsions:
REMARK  status: ('A' for Active; 'I' for Inactive)
REMARK    1  A    between atoms: O_1  and  C_6
REMARK    2  A    between atoms: O_1  and  C_10
REMARK    3  A    between atoms: N_2  and  C_3
REMARK    4  A    between atoms: N_2  and  C_4
REMARK    5  A    between atoms: N_2  and  C_5
REMARK    6  A    between atoms: C_3  and  C_6
REMARK    7  A    between atoms: C_4  and  C_7
REMARK    8  A    between atoms: C_5  and  C_8
REMARK    9  A    between atoms: C_9  and  C_11
REMARK   10  A    between atoms: C_11  and  C_16
REMARK   11  A    between atoms: C_17  and  C_18
REMARK                            x       y       z     vdW  Elec       q    Type
REMARK                         _______ _______ _______ _____ _____    ______ ____
ROOT
ATOM      1  C   UNL     1      33.517  -3.553  23.318  0.00  0.00    +0.121 A 
ATOM      2  C   UNL     1      32.952  -2.903  22.810  0.00  0.00    +0.046 A 
ATOM      3  C   UNL     1      33.108  -2.762  21.833  0.00  0.00    +0.012 A 
ATOM      4  C   UNL     1      33.831  -3.270  21.364  0.00  0.00    -0.017 A 
ATOM      5  C   UNL     1      34.396  -3.919  21.872  0.00  0.00    +0.012 A 
ATOM      6  C   UNL     1      34.239  -4.061  22.849  0.00  0.00    +0.046 A 
ENDROOT
BRANCH   4   7
ATOM      7  C   UNL     1      33.988  -3.128  20.386  0.00  0.00    -0.010 C 
ATOM      8  C   UNL     1      33.342  -3.497  19.718  0.00  0.00    +0.017 C 
BRANCH   8   9
ATOM      9  C   UNL     1      33.499  -3.356  18.740  0.00  0.00    -0.024 A 
ATOM     10  C   UNL     1      33.123  -2.548  18.285  0.00  0.00    +0.008 A 
ATOM     11  C   UNL     1      33.280  -2.407  17.308  0.00  0.00    +0.001 A 
ATOM     12  C   UNL     1      33.812  -3.073  16.785  0.00  0.00    +0.000 A 
ATOM     13  C   UNL     1      34.188  -3.880  17.240  0.00  0.00    +0.001 A 
ATOM     14  C   UNL     1      34.031  -4.022  18.217  0.00  0.00    +0.008 A 
ENDBRANCH   8   9
BRANCH   7  15
ATOM     15  C   UNL     1      34.790  -2.618  20.077  0.00  0.00    -0.017 A 
ATOM     16  C   UNL     1      34.729  -1.630  19.934  0.00  0.00    +0.008 A 
ATOM     17  C   UNL     1      35.532  -1.119  19.625  0.00  0.00    +0.001 A 
ATOM     18  C   UNL     1      36.395  -1.597  19.459  0.00  0.00    +0.000 A 
ATOM     19  C   UNL     1      36.455  -2.584  19.603  0.00  0.00    +0.001 A 
ATOM     20  C   UNL     1      35.653  -3.095  19.912  0.00  0.00    +0.008 A 
ENDBRANCH   7  15
ENDBRANCH   4   7
BRANCH   1  21
ATOM     21  O   UNL     1      33.360  -3.694  24.296  0.00  0.00    -0.491 OA
BRANCH  21  22
ATOM     22  C   UNL     1      32.900  -2.990  24.836  0.00  0.00    +0.244 C 
BRANCH  22  23
ATOM     23  C   UNL     1      32.649  -3.172  25.786  0.00  0.00    +0.125 C 
BRANCH  23  24
ATOM     24  N   UNL     1      32.319  -2.429  26.368  0.00  0.00    -0.300 NA
BRANCH  24  25
ATOM     25  C   UNL     1      32.849  -2.148  27.169  0.00  0.00    +0.081 C 
ATOM     26  C   UNL     1      33.386  -1.305  27.143  0.00  0.00    +0.020 C 
ENDBRANCH  24  25
BRANCH  24  27
ATOM     27  C   UNL     1      31.461  -1.966  26.149  0.00  0.00    +0.081 C 
ATOM     28  C   UNL     1      30.595  -2.325  26.498  0.00  0.00    +0.020 C 
ENDBRANCH  24  27
ENDBRANCH  23  24
ENDBRANCH  22  23
ENDBRANCH  21  22
ENDBRANCH   1  21
TORSDOF 9
ENDMDL
MODEL 9
REMARK VINA RESULT:      -7.6     10.869     14.002
REMARK  Name = 192969
REMARK  11 active torsions:
REMARK  status: ('A' for Active; 'I' for Inactive)
REMARK    1  A    between atoms: O_1  and  C_6
REMARK    2  A    between atoms: O_1  and  C_10
REMARK    3  A    between atoms: N_2  and  C_3
REMARK    4  A    between atoms: N_2  and  C_4
REMARK    5  A    between atoms: N_2  and  C_5
REMARK    6  A    between atoms: C_3  and  C_6
REMARK    7  A    between atoms: C_4  and  C_7
REMARK    8  A    between atoms: C_5  and  C_8
REMARK    9  A    between atoms: C_9  and  C_11
REMARK   10  A    between atoms: C_11  and  C_16
REMARK   11  A    between atoms: C_17  and  C_18
REMARK                            x       y       z     vdW  Elec       q    Type
REMARK                         _______ _______ _______ _____ _____    ______ ____
ROOT
ATOM      1  C   UNL     1      38.225   3.866  17.121  0.00  0.00    +0.121 A 
ATOM      2  C   UNL     1      38.381   3.826  18.108  0.00  0.00    +0.046 A 
ATOM      3  C   UNL     1      38.696   4.639  18.598  0.00  0.00    +0.012 A 
ATOM      4  C   UNL     1      38.855   5.492  18.101  0.00  0.00    -0.017 A 
ATOM      5  C   UNL     1      38.700   5.532  17.114  0.00  0.00    +0.012 A 
ATOM      6  C   UNL     1      38.384   4.719  16.624  0.00  0.00    +0.046 A 
ENDROOT
BRANCH   4   7
ATOM      7  C   UNL     1      39.170   6.304  18.591  0.00  0.00    -0.010 C 
ATOM      8  C   UNL     1      38.526   7.038  18.809  0.00  0.00    +0.017 C 
BRANCH   8   9
ATOM      9  C   UNL     1      38.841   7.851  19.299  0.00  0.00    -0.024 A 
ATOM     10  C   UNL     1      38.792   7.883  20.298  0.00  0.00    +0.008 A 
ATOM     11  C   UNL     1      39.107   8.696  20.788  0.00  0.00    +0.001 A 
ATOM     12  C   UNL     1      39.471   9.476  20.279  0.00  0.00    +0.000 A 
ATOM     13  C   UNL     1      39.521   9.444  19.281  0.00  0.00    +0.001 A 
ATOM     14  C   UNL     1      39.206   8.631  18.791  0.00  0.00    +0.008 A 
ENDBRANCH   8   9
BRANCH   7  15
ATOM     15  C   UNL     1      40.129   6.384  18.863  0.00  0.00    -0.017 A 
ATOM     16  C   UNL     1      40.412   6.116  19.784  0.00  0.00    +0.008 A 
ATOM     17  C   UNL     1      41.371   6.195  20.056  0.00  0.00    +0.001 A 
ATOM     18  C   UNL     1      42.047   6.543  19.407  0.00  0.00    +0.000 A 
ATOM     19  C   UNL     1      41.765   6.812  18.486  0.00  0.00    +0.001 A 
ATOM     20  C   UNL     1      40.806   6.732  18.214  0.00  0.00    +0.008 A 
ENDBRANCH   7  15
ENDBRANCH   4   7
BRANCH   1  21
ATOM     21  O   UNL     1      37.910   3.053  16.632  0.00  0.00    -0.491 OA
BRANCH  21  22
ATOM     22  C   UNL     1      36.991   3.031  16.239  0.00  0.00    +0.244 C 
BRANCH  22  23
ATOM     23  C   UNL     1      36.508   2.160  16.145  0.00  0.00    +0.125 C 
BRANCH  23  24
ATOM     24  N   UNL     1      35.515   2.150  16.025  0.00  0.00    -0.300 NA
BRANCH  24  25
ATOM     25  C   UNL     1      35.103   2.584  15.225  0.00  0.00    +0.081 C 
ATOM     26  C   UNL     1      34.353   3.236  15.340  0.00  0.00    +0.020 C 
ENDBRANCH  24  25
BRANCH  24  27
ATOM     27  C   UNL     1      34.935   1.704  16.707  0.00  0.00    +0.081 C 
ATOM     28  C   UNL     1      35.051   0.730  16.903  0.00  0.00    +0.020 C 
ENDBRANCH  24  27
ENDBRANCH  23  24
ENDBRANCH  22  23
ENDBRANCH  21  22
ENDBRANCH   1  21
TORSDOF 9
ENDMDL
MODEL 10
REMARK VINA RESULT:      -7.6      9.563     12.496
REMARK  Name = 192969
REMARK  11 active torsions:
REMARK  status: ('A' for Active; 'I' for Inactive)
REMARK    1  A    between atoms: O_1  and  C_6
REMARK    2  A    between atoms: O_1  and  C_10
REMARK    3  A    between atoms: N_2  and  C_3
REMARK    4  A    between atoms: N_2  and  C_4
REMARK    5  A    between atoms: N_2  and  C_5
REMARK    6  A    between atoms: C_3  and  C_6
REMARK    7  A    between atoms: C_4  and  C_7
REMARK    8  A    between atoms: C_5  and  C_8
REMARK    9  A    between atoms: C_9  and  C_11
REMARK   10  A    between atoms: C_11  and  C_16
REMARK   11  A    between atoms: C_17  and  C_18
REMARK                            x       y       z     vdW  Elec       q    Type
REMARK                         _______ _______ _______ _____ _____    ______ ____
ROOT
ATOM      1  C   UNL     1      38.493   3.931  17.727  0.00  0.00    +0.121 A 
ATOM      2  C   UNL     1      38.191   3.526  16.865  0.00  0.00    +0.046 A 
ATOM      3  C   UNL     1      37.757   2.625  16.860  0.00  0.00    +0.012 A 
ATOM      4  C   UNL     1      37.626   2.129  17.718  0.00  0.00    -0.017 A 
ATOM      5  C   UNL     1      37.929   2.534  18.581  0.00  0.00    +0.012 A 
ATOM      6  C   UNL     1      38.362   3.435  18.586  0.00  0.00    +0.046 A 
ENDROOT
BRANCH   4   7
ATOM      7  C   UNL     1      37.193   1.227  17.714  0.00  0.00    -0.010 C 
ATOM      8  C   UNL     1      36.200   1.150  17.799  0.00  0.00    +0.017 C 
BRANCH   8   9
ATOM      9  C   UNL     1      35.767   0.248  17.795  0.00  0.00    -0.024 A 
ATOM     10  C   UNL     1      35.639  -0.249  18.653  0.00  0.00    +0.008 A 
ATOM     11  C   UNL     1      35.205  -1.150  18.648  0.00  0.00    +0.001 A 
ATOM     12  C   UNL     1      34.901  -1.554  17.786  0.00  0.00    +0.000 A 
ATOM     13  C   UNL     1      35.029  -1.057  16.928  0.00  0.00    +0.001 A 
ATOM     14  C   UNL     1      35.462  -0.156  16.932  0.00  0.00    +0.008 A 
ENDBRANCH   8   9
BRANCH   7  15
ATOM     15  C   UNL     1      37.754   0.404  17.624  0.00  0.00    -0.017 A 
ATOM     16  C   UNL     1      38.123  -0.040  18.440  0.00  0.00    +0.008 A 
ATOM     17  C   UNL     1      38.684  -0.864  18.351  0.00  0.00    +0.001 A 
ATOM     18  C   UNL     1      38.874  -1.243  17.445  0.00  0.00    +0.000 A 
ATOM     19  C   UNL     1      38.504  -0.799  16.629  0.00  0.00    +0.001 A 
ATOM     20  C   UNL     1      37.944   0.025  16.719  0.00  0.00    +0.008 A 
ENDBRANCH   7  15
ENDBRANCH   4   7
BRANCH   1  21
ATOM     21  O   UNL     1      38.926   4.833  17.732  0.00  0.00    -0.491 OA
BRANCH  21  22
ATOM     22  C   UNL     1      39.066   5.316  18.596  0.00  0.00    +0.244 C 
BRANCH  22  23
ATOM     23  C   UNL     1      39.751   6.042  18.658  0.00  0.00    +0.125 C 
BRANCH  23  24
ATOM     24  N   UNL     1      39.813   6.602  19.484  0.00  0.00    -0.300 NA
BRANCH  24  25
ATOM     25  C   UNL     1      40.633   6.561  20.055  0.00  0.00    +0.081 C 
ATOM     26  C   UNL     1      41.530   6.429  19.634  0.00  0.00    +0.020 C 
ENDBRANCH  24  25
BRANCH  24  27
ATOM     27  C   UNL     1      39.055   7.203  19.738  0.00  0.00    +0.081 C 
ATOM     28  C   UNL     1      39.148   7.822  20.518  0.00  0.00    +0.020 C 
ENDBRANCH  24  27
ENDBRANCH  23  24
ENDBRANCH  22  23
ENDBRANCH  21  22
ENDBRANCH   1  21
TORSDOF 9
ENDMDL
