REMARK  Name = 192969
REMARK  11 active torsions:
REMARK  status: ('A' for Active; 'I' for Inactive)
REMARK    1  A    between atoms: O_1  and  C_6
REMARK    2  A    between atoms: O_1  and  C_10
REMARK    3  A    between atoms: N_2  and  C_3
REMARK    4  A    between atoms: N_2  and  C_4
REMARK    5  A    between atoms: N_2  and  C_5
REMARK    6  A    between atoms: C_3  and  C_6
REMARK    7  A    between atoms: C_4  and  C_7
REMARK    8  A    between atoms: C_5  and  C_8
REMARK    9  A    between atoms: C_9  and  C_11
REMARK   10  A    between atoms: C_11  and  C_16
REMARK   11  A    between atoms: C_17  and  C_18
REMARK                            x       y       z     vdW  Elec       q    Type
REMARK                         _______ _______ _______ _____ _____    ______ ____
ROOT
ATOM      1  C   UNL     1       5.464  -1.000   0.000  0.00  0.00    +0.121 A 
ATOM      2  C   UNL     1       6.330  -0.500   0.000  0.00  0.00    +0.046 A 
ATOM      3  C   UNL     1       6.330   0.500   0.000  0.00  0.00    +0.012 A 
ATOM      4  C   UNL     1       5.464   1.000   0.000  0.00  0.00    -0.017 A 
ATOM      5  C   UNL     1       4.598   0.500   0.000  0.00  0.00    +0.012 A 
ATOM      6  C   UNL     1       4.598  -0.500   0.000  0.00  0.00    +0.046 A 
ENDROOT
BRANCH   4   7
ATOM      7  C   UNL     1       5.464   2.000   0.000  0.00  0.00    -0.010 C 
ATOM      8  C   UNL     1       4.598   2.500   0.000  0.00  0.00    +0.017 C 
BRANCH   8   9
ATOM      9  C   UNL     1       4.598   3.500   0.000  0.00  0.00    -0.024 A 
ATOM     10  C   UNL     1       3.732   4.000   0.000  0.00  0.00    +0.008 A 
ATOM     11  C   UNL     1       3.732   5.000   0.000  0.00  0.00    +0.001 A 
ATOM     12  C   UNL     1       4.598   5.500   0.000  0.00  0.00    +0.000 A 
ATOM     13  C   UNL     1       5.464   5.000   0.000  0.00  0.00    +0.001 A 
ATOM     14  C   UNL     1       5.464   4.000   0.000  0.00  0.00    +0.008 A 
ENDBRANCH   8   9
BRANCH   7  15
ATOM     15  C   UNL     1       6.330   2.500   0.000  0.00  0.00    -0.017 A 
ATOM     16  C   UNL     1       6.330   3.500   0.000  0.00  0.00    +0.008 A 
ATOM     17  C   UNL     1       7.196   4.000   0.000  0.00  0.00    +0.001 A 
ATOM     18  C   UNL     1       8.062   3.500   0.000  0.00  0.00    +0.000 A 
ATOM     19  C   UNL     1       8.062   2.500   0.000  0.00  0.00    +0.001 A 
ATOM     20  C   UNL     1       7.196   2.000   0.000  0.00  0.00    +0.008 A 
ENDBRANCH   7  15
ENDBRANCH   4   7
BRANCH   1  21
ATOM     21  O   UNL     1       5.464  -2.000   0.000  0.00  0.00    -0.491 OA
BRANCH  21  22
ATOM     22  C   UNL     1       4.598  -2.500   0.000  0.00  0.00    +0.244 C 
BRANCH  22  23
ATOM     23  C   UNL     1       4.598  -3.500   0.000  0.00  0.00    +0.125 C 
BRANCH  23  24
ATOM     24  N   UNL     1       3.732  -4.000   0.000  0.00  0.00    -0.300 NA
BRANCH  24  25
ATOM     25  C   UNL     1       2.866  -3.500   0.000  0.00  0.00    +0.081 C 
ATOM     26  C   UNL     1       2.000  -4.000   0.000  0.00  0.00    +0.020 C 
ENDBRANCH  24  25
BRANCH  24  27
ATOM     27  C   UNL     1       3.732  -5.000   0.000  0.00  0.00    +0.081 C 
ATOM     28  C   UNL     1       2.866  -5.500   0.000  0.00  0.00    +0.020 C 
ENDBRANCH  24  27
ENDBRANCH  23  24
ENDBRANCH  22  23
ENDBRANCH  21  22
ENDBRANCH   1  21
TORSDOF 9
