23728496
  -OEChem-08052412102D

 51 53  0     0  0  0  0  0  0999 V2000
    2.8660    2.0000    0.0000 Cl  0  0  0  0  0  0  0  0  0  0  0  0
    4.5981   -2.0000    0.0000 O   0  0  0  0  0  0  0  0  0  0  0  0
    2.8660   -4.0000    0.0000 N   0  0  0  0  0  0  0  0  0  0  0  0
    4.5981    2.0000    0.0000 C   0  0  0  0  0  0  0  0  0  0  0  0
    4.5981    1.0000    0.0000 C   0  0  0  0  0  0  0  0  0  0  0  0
    5.4641    2.5000    0.0000 C   0  0  0  0  0  0  0  0  0  0  0  0
    4.5981   -1.0000    0.0000 C   0  0  0  0  0  0  0  0  0  0  0  0
    3.7320    0.5000    0.0000 C   0  0  0  0  0  0  0  0  0  0  0  0
    5.4641    0.5000    0.0000 C   0  0  0  0  0  0  0  0  0  0  0  0
    3.7320    2.5000    0.0000 C   0  0  0  0  0  0  0  0  0  0  0  0
    3.7320   -3.5000    0.0000 C   0  0  0  0  0  0  0  0  0  0  0  0
    3.7320   -2.5000    0.0000 C   0  0  0  0  0  0  0  0  0  0  0  0
    3.7320   -0.5000    0.0000 C   0  0  0  0  0  0  0  0  0  0  0  0
    5.4641   -0.5000    0.0000 C   0  0  0  0  0  0  0  0  0  0  0  0
    3.7320    3.5000    0.0000 C   0  0  0  0  0  0  0  0  0  0  0  0
    6.3301    2.0000    0.0000 C   0  0  0  0  0  0  0  0  0  0  0  0
    5.4641    3.5000    0.0000 C   0  0  0  0  0  0  0  0  0  0  0  0
    2.8660   -5.0000    0.0000 C   0  0  0  0  0  0  0  0  0  0  0  0
    7.1962    2.5000    0.0000 C   0  0  0  0  0  0  0  0  0  0  0  0
    6.3301    4.0000    0.0000 C   0  0  0  0  0  0  0  0  0  0  0  0
    2.8660    4.0000    0.0000 C   0  0  0  0  0  0  0  0  0  0  0  0
    4.5981    4.0000    0.0000 C   0  0  0  0  0  0  0  0  0  0  0  0
    7.1962    3.5000    0.0000 C   0  0  0  0  0  0  0  0  0  0  0  0
    2.0000   -5.5000    0.0000 C   0  0  0  0  0  0  0  0  0  0  0  0
    2.8660    5.0000    0.0000 C   0  0  0  0  0  0  0  0  0  0  0  0
    4.5981    5.0000    0.0000 C   0  0  0  0  0  0  0  0  0  0  0  0
    3.7320    5.5000    0.0000 C   0  0  0  0  0  0  0  0  0  0  0  0
    3.1951    0.8100    0.0000 H   0  0  0  0  0  0  0  0  0  0  0  0
    6.0010    0.8100    0.0000 H   0  0  0  0  0  0  0  0  0  0  0  0
    3.9441   -4.0826    0.0000 H   0  0  0  0  0  0  0  0  0  0  0  0
    4.3426   -3.3923    0.0000 H   0  0  0  0  0  0  0  0  0  0  0  0
    3.5200   -1.9174    0.0000 H   0  0  0  0  0  0  0  0  0  0  0  0
    3.1215   -2.6077    0.0000 H   0  0  0  0  0  0  0  0  0  0  0  0
    3.1951   -0.8100    0.0000 H   0  0  0  0  0  0  0  0  0  0  0  0
    6.0010   -0.8100    0.0000 H   0  0  0  0  0  0  0  0  0  0  0  0
    2.3291   -3.6900    0.0000 H   0  0  0  0  0  0  0  0  0  0  0  0
    6.3301    1.3800    0.0000 H   0  0  0  0  0  0  0  0  0  0  0  0
    4.9272    3.8100    0.0000 H   0  0  0  0  0  0  0  0  0  0  0  0
    3.0781   -5.5826    0.0000 H   0  0  0  0  0  0  0  0  0  0  0  0
    3.4766   -4.8923    0.0000 H   0  0  0  0  0  0  0  0  0  0  0  0
    7.7331    2.1900    0.0000 H   0  0  0  0  0  0  0  0  0  0  0  0
    6.3301    4.6200    0.0000 H   0  0  0  0  0  0  0  0  0  0  0  0
    2.3291    3.6900    0.0000 H   0  0  0  0  0  0  0  0  0  0  0  0
    5.1350    3.6900    0.0000 H   0  0  0  0  0  0  0  0  0  0  0  0
    7.7331    3.8100    0.0000 H   0  0  0  0  0  0  0  0  0  0  0  0
    1.6900   -4.9631    0.0000 H   0  0  0  0  0  0  0  0  0  0  0  0
    1.4631   -5.8100    0.0000 H   0  0  0  0  0  0  0  0  0  0  0  0
    2.3100   -6.0369    0.0000 H   0  0  0  0  0  0  0  0  0  0  0  0
    2.3291    5.3100    0.0000 H   0  0  0  0  0  0  0  0  0  0  0  0
    5.1350    5.3100    0.0000 H   0  0  0  0  0  0  0  0  0  0  0  0
    3.7320    6.1200    0.0000 H   0  0  0  0  0  0  0  0  0  0  0  0
  1 10  1  0  0  0  0
  2  7  1  0  0  0  0
  2 12  1  0  0  0  0
  3 11  1  0  0  0  0
  3 18  1  0  0  0  0
  3 36  1  0  0  0  0
  4  5  1  0  0  0  0
  4  6  1  0  0  0  0
  4 10  2  0  0  0  0
  5  8  2  0  0  0  0
  5  9  1  0  0  0  0
  6 16  2  0  0  0  0
  6 17  1  0  0  0  0
  7 13  2  0  0  0  0
  7 14  1  0  0  0  0
  8 13  1  0  0  0  0
  8 28  1  0  0  0  0
  9 14  2  0  0  0  0
  9 29  1  0  0  0  0
 10 15  1  0  0  0  0
 11 12  1  0  0  0  0
 11 30  1  0  0  0  0
 11 31  1  0  0  0  0
 12 32  1  0  0  0  0
 12 33  1  0  0  0  0
 13 34  1  0  0  0  0
 14 35  1  0  0  0  0
 15 21  2  0  0  0  0
 15 22  1  0  0  0  0
 16 19  1  0  0  0  0
 16 37  1  0  0  0  0
 17 20  2  0  0  0  0
 17 38  1  0  0  0  0
 18 24  1  0  0  0  0
 18 39  1  0  0  0  0
 18 40  1  0  0  0  0
 19 23  2  0  0  0  0
 19 41  1  0  0  0  0
 20 23  1  0  0  0  0
 20 42  1  0  0  0  0
 21 25  1  0  0  0  0
 21 43  1  0  0  0  0
 22 26  2  0  0  0  0
 22 44  1  0  0  0  0
 23 45  1  0  0  0  0
 24 46  1  0  0  0  0
 24 47  1  0  0  0  0
 24 48  1  0  0  0  0
 25 27  2  0  0  0  0
 25 49  1  0  0  0  0
 26 27  1  0  0  0  0
 26 50  1  0  0  0  0
 27 51  1  0  0  0  0
M  END
> <PUBCHEM_COMPOUND_CID>
23728496

> <PUBCHEM_COMPOUND_CANONICALIZED>
1

> <PUBCHEM_CACTVS_COMPLEXITY>
443

> <PUBCHEM_CACTVS_HBOND_ACCEPTOR>
2

> <PUBCHEM_CACTVS_HBOND_DONOR>
1

> <PUBCHEM_CACTVS_ROTATABLE_BOND>
8

> <PUBCHEM_CACTVS_SUBSKEYS>
AAADceB6IAAEAAAAAAAAAAAAAAAAAAAAAAAwYMAAAAAAAAABUAAAHgIQAAAADAbhmAYyBoLABACAAiBCAAACCAAgIAAIiIAOCogOJiKFMRqDOCCk0BGYqAeAwOAOIAAAAAAAAABAAAAAAAAAAAAAAAAAAA==

> <PUBCHEM_IUPAC_OPENEYE_NAME>
2-[4-[(Z)-2-chloro-1,2-diphenyl-vinyl]phenoxy]-N-ethyl-ethanamine

> <PUBCHEM_IUPAC_CAS_NAME>
2-[4-[(Z)-2-chloro-1,2-diphenylethenyl]phenoxy]-N-ethylethanamine

> <PUBCHEM_IUPAC_NAME_MARKUP>
2-[4-[(<I>Z</I>)-2-chloro-1,2-diphenylethenyl]phenoxy]-<I>N</I>-ethylethanamine

> <PUBCHEM_IUPAC_NAME>
2-[4-[(Z)-2-chloro-1,2-diphenylethenyl]phenoxy]-N-ethylethanamine

> <PUBCHEM_IUPAC_SYSTEMATIC_NAME>
2-[4-[(Z)-2-chloranyl-1,2-diphenyl-ethenyl]phenoxy]-N-ethyl-ethanamine

> <PUBCHEM_IUPAC_TRADITIONAL_NAME>
2-[4-[(Z)-2-chloro-1,2-diphenyl-vinyl]phenoxy]ethyl-ethyl-amine

> <PUBCHEM_IUPAC_INCHI>
InChI=1S/C24H24ClNO/c1-2-26-17-18-27-22-15-13-20(14-16-22)23(19-9-5-3-6-10-19)24(25)21-11-7-4-8-12-21/h3-16,26H,2,17-18H2,1H3/b24-23-

> <PUBCHEM_IUPAC_INCHIKEY>
JZPXQFJYBKJJBY-VHXPQNKSSA-N

> <PUBCHEM_XLOGP3_AA>
6.4

> <PUBCHEM_EXACT_MASS>
377.1546421

> <PUBCHEM_MOLECULAR_FORMULA>
C24H24ClNO

> <PUBCHEM_MOLECULAR_WEIGHT>
377.9

> <PUBCHEM_OPENEYE_CAN_SMILES>
CCNCCOC1=CC=C(C=C1)C(=C(C2=CC=CC=C2)Cl)C3=CC=CC=C3

> <PUBCHEM_OPENEYE_ISO_SMILES>
CCNCCOC1=CC=C(C=C1)/C(=C(/C2=CC=CC=C2)\Cl)/C3=CC=CC=C3

> <PUBCHEM_CACTVS_TPSA>
21.3

> <PUBCHEM_MONOISOTOPIC_WEIGHT>
377.1546421

> <PUBCHEM_TOTAL_CHARGE>
0

> <PUBCHEM_HEAVY_ATOM_COUNT>
27

> <PUBCHEM_ATOM_DEF_STEREO_COUNT>
0

> <PUBCHEM_ATOM_UDEF_STEREO_COUNT>
0

> <PUBCHEM_BOND_DEF_STEREO_COUNT>
1

> <PUBCHEM_BOND_UDEF_STEREO_COUNT>
0

> <PUBCHEM_ISOTOPIC_ATOM_COUNT>
0

> <PUBCHEM_COMPONENT_COUNT>
1

> <PUBCHEM_CACTVS_TAUTO_COUNT>
-1

> <PUBCHEM_COORDINATE_TYPE>
1
5
255

> <PUBCHEM_BONDANNOTATIONS>
15  21  8
15  22  8
16  19  8
17  20  8
19  23  8
20  23  8
21  25  8
22  26  8
25  27  8
26  27  8
5  8  8
5  9  8
6  16  8
6  17  8
7  13  8
7  14  8
8  13  8
9  14  8

$$$$
