REMARK  Name = 3036201
REMARK  7 active torsions:
REMARK  status: ('A' for Active; 'I' for Inactive)
REMARK    1  A    between atoms: O_2  and  C_7
REMARK    2  A    between atoms: O_2  and  C_8
REMARK    3  A    between atoms: N_3  and  C_6
REMARK    4  A    between atoms: C_6  and  C_7
REMARK    5  A    between atoms: C_9  and  C_12
REMARK    6  A    between atoms: C_12  and  C_15
REMARK    7  A    between atoms: C_16  and  C_17
REMARK                            x       y       z     vdW  Elec       q    Type
REMARK                         _______ _______ _______ _____ _____    ______ ____
ROOT
ATOM      1  I   UNL     1       3.000   1.683   0.000  0.00  0.00    -0.043 I 
ATOM      2  C   UNL     1       3.866   2.183   0.000  0.00  0.00    +0.029 C 
ATOM      3  C   UNL     1       4.732   1.683   0.000  0.00  0.00    +0.003 C 
ENDROOT
BRANCH   2   4
ATOM      4  C   UNL     1       3.866   3.183   0.000  0.00  0.00    -0.011 A 
ATOM      5  C   UNL     1       3.000   3.683   0.000  0.00  0.00    +0.009 A 
ATOM      6  C   UNL     1       3.000   4.683   0.000  0.00  0.00    +0.001 A 
ATOM      7  C   UNL     1       3.866   5.183   0.000  0.00  0.00    +0.000 A 
ATOM      8  C   UNL     1       4.732   4.683   0.000  0.00  0.00    +0.001 A 
ATOM      9  C   UNL     1       4.732   3.683   0.000  0.00  0.00    +0.009 A 
ENDBRANCH   2   4
BRANCH   3  10
ATOM     10  C   UNL     1       5.598   2.183   0.000  0.00  0.00    -0.016 A 
ATOM     11  C   UNL     1       5.598   3.183   0.000  0.00  0.00    +0.008 A 
ATOM     12  C   UNL     1       6.464   3.683   0.000  0.00  0.00    +0.001 A 
ATOM     13  C   UNL     1       7.330   3.183   0.000  0.00  0.00    +0.000 A 
ATOM     14  C   UNL     1       7.330   2.183   0.000  0.00  0.00    +0.001 A 
ATOM     15  C   UNL     1       6.464   1.683   0.000  0.00  0.00    +0.008 A 
ENDBRANCH   3  10
BRANCH   3  16
ATOM     16  C   UNL     1       4.732   0.683   0.000  0.00  0.00    -0.016 A 
ATOM     17  C   UNL     1       5.598   0.183   0.000  0.00  0.00    +0.012 A 
ATOM     18  C   UNL     1       5.598  -0.817   0.000  0.00  0.00    +0.046 A 
ATOM     19  C   UNL     1       4.732  -1.317   0.000  0.00  0.00    +0.121 A 
ATOM     20  C   UNL     1       3.866  -0.817   0.000  0.00  0.00    +0.046 A 
ATOM     21  C   UNL     1       3.866   0.183   0.000  0.00  0.00    +0.012 A 
BRANCH  19  22
ATOM     22  O   UNL     1       4.732  -2.317   0.000  0.00  0.00    -0.491 OA
BRANCH  22  23
ATOM     23  C   UNL     1       3.866  -2.817   0.000  0.00  0.00    +0.244 C 
BRANCH  23  24
ATOM     24  C   UNL     1       3.866  -3.817   0.000  0.00  0.00    +0.125 C 
BRANCH  24  25
ATOM     25  N   UNL     1       3.000  -4.317   0.000  0.00  0.00    -0.297 NA
ATOM     26  C   UNL     1       2.500  -5.183   0.000  0.00  0.00    +0.100 C 
ATOM     27  C   UNL     1       2.000  -4.317   0.000  0.00  0.00    +0.100 C 
ENDBRANCH  24  25
ENDBRANCH  23  24
ENDBRANCH  22  23
ENDBRANCH  19  22
ENDBRANCH   3  16
TORSDOF 7
