3036201
  -OEChem-08052412112D

 49 52  0     0  0  0  0  0  0999 V2000
    3.0000    1.6830    0.0000 I  -2  0  0  0  0  0  0  0  0  0  0  0
    4.7320   -2.3170    0.0000 O   0  0  0  0  0  0  0  0  0  0  0  0
    3.0000   -4.3170    0.0000 N   0  0  0  0  0  0  0  0  0  0  0  0
    2.0000   -4.3170    0.0000 C   0  0  0  0  0  0  0  0  0  0  0  0
    2.5000   -5.1830    0.0000 C   0  0  0  0  0  0  0  0  0  0  0  0
    3.8660   -3.8170    0.0000 C   0  0  0  0  0  0  0  0  0  0  0  0
    3.8660   -2.8170    0.0000 C   0  0  0  0  0  0  0  0  0  0  0  0
    4.7320   -1.3170    0.0000 C   0  0  0  0  0  0  0  0  0  0  0  0
    4.7320    0.6830    0.0000 C   0  0  0  0  0  0  0  0  0  0  0  0
    3.8660   -0.8170    0.0000 C   0  0  0  0  0  0  0  0  0  0  0  0
    5.5981   -0.8170    0.0000 C   0  0  0  0  0  0  0  0  0  0  0  0
    4.7320    1.6830    0.0000 C   0  0  0  0  0  0  0  0  0  0  0  0
    3.8660    0.1830    0.0000 C   0  0  0  0  0  0  0  0  0  0  0  0
    5.5981    0.1830    0.0000 C   0  0  0  0  0  0  0  0  0  0  0  0
    5.5981    2.1830    0.0000 C   0  0  0  0  0  0  0  0  0  0  0  0
    3.8660    2.1830    0.0000 C   0  0  0  0  0  0  0  0  0  0  0  0
    3.8660    3.1830    0.0000 C   0  0  0  0  0  0  0  0  0  0  0  0
    6.4641    1.6830    0.0000 C   0  0  0  0  0  0  0  0  0  0  0  0
    5.5981    3.1830    0.0000 C   0  0  0  0  0  0  0  0  0  0  0  0
    7.3301    2.1830    0.0000 C   0  0  0  0  0  0  0  0  0  0  0  0
    6.4641    3.6830    0.0000 C   0  0  0  0  0  0  0  0  0  0  0  0
    4.7320    3.6830    0.0000 C   0  0  0  0  0  0  0  0  0  0  0  0
    3.0000    3.6830    0.0000 C   0  0  0  0  0  0  0  0  0  0  0  0
    7.3301    3.1830    0.0000 C   0  0  0  0  0  0  0  0  0  0  0  0
    4.7320    4.6830    0.0000 C   0  0  0  0  0  0  0  0  0  0  0  0
    3.0000    4.6830    0.0000 C   0  0  0  0  0  0  0  0  0  0  0  0
    3.8660    5.1830    0.0000 C   0  0  0  0  0  0  0  0  0  0  0  0
    1.8923   -3.7064    0.0000 H   0  0  0  0  0  0  0  0  0  0  0  0
    1.4174   -4.5290    0.0000 H   0  0  0  0  0  0  0  0  0  0  0  0
    2.0250   -5.5815    0.0000 H   0  0  0  0  0  0  0  0  0  0  0  0
    2.9750   -5.5815    0.0000 H   0  0  0  0  0  0  0  0  0  0  0  0
    4.0781   -4.3996    0.0000 H   0  0  0  0  0  0  0  0  0  0  0  0
    4.4766   -3.7093    0.0000 H   0  0  0  0  0  0  0  0  0  0  0  0
    3.6540   -2.2344    0.0000 H   0  0  0  0  0  0  0  0  0  0  0  0
    3.2554   -2.9247    0.0000 H   0  0  0  0  0  0  0  0  0  0  0  0
    3.3291   -1.1270    0.0000 H   0  0  0  0  0  0  0  0  0  0  0  0
    6.1350   -1.1270    0.0000 H   0  0  0  0  0  0  0  0  0  0  0  0
    3.3291    0.4930    0.0000 H   0  0  0  0  0  0  0  0  0  0  0  0
    6.1350    0.4930    0.0000 H   0  0  0  0  0  0  0  0  0  0  0  0
    6.4641    1.0630    0.0000 H   0  0  0  0  0  0  0  0  0  0  0  0
    5.0611    3.4930    0.0000 H   0  0  0  0  0  0  0  0  0  0  0  0
    7.8671    1.8730    0.0000 H   0  0  0  0  0  0  0  0  0  0  0  0
    6.4641    4.3030    0.0000 H   0  0  0  0  0  0  0  0  0  0  0  0
    5.2690    3.3730    0.0000 H   0  0  0  0  0  0  0  0  0  0  0  0
    2.4631    3.3730    0.0000 H   0  0  0  0  0  0  0  0  0  0  0  0
    7.8671    3.4930    0.0000 H   0  0  0  0  0  0  0  0  0  0  0  0
    5.2690    4.9930    0.0000 H   0  0  0  0  0  0  0  0  0  0  0  0
    2.4631    4.9930    0.0000 H   0  0  0  0  0  0  0  0  0  0  0  0
    3.8660    5.8030    0.0000 H   0  0  0  0  0  0  0  0  0  0  0  0
  1 16  1  0  0  0  0
  2  7  1  0  0  0  0
  2  8  1  0  0  0  0
  3  4  1  0  0  0  0
  3  5  1  0  0  0  0
  3  6  1  0  0  0  0
  4  5  1  0  0  0  0
  4 28  1  0  0  0  0
  4 29  1  0  0  0  0
  5 30  1  0  0  0  0
  5 31  1  0  0  0  0
  6  7  1  0  0  0  0
  6 32  1  0  0  0  0
  6 33  1  0  0  0  0
  7 34  1  0  0  0  0
  7 35  1  0  0  0  0
  8 10  2  0  0  0  0
  8 11  1  0  0  0  0
  9 12  1  0  0  0  0
  9 13  2  0  0  0  0
  9 14  1  0  0  0  0
 10 13  1  0  0  0  0
 10 36  1  0  0  0  0
 11 14  2  0  0  0  0
 11 37  1  0  0  0  0
 12 15  1  0  0  0  0
 12 16  2  0  0  0  0
 13 38  1  0  0  0  0
 14 39  1  0  0  0  0
 15 18  2  0  0  0  0
 15 19  1  0  0  0  0
 16 17  1  0  0  0  0
 17 22  2  0  0  0  0
 17 23  1  0  0  0  0
 18 20  1  0  0  0  0
 18 40  1  0  0  0  0
 19 21  2  0  0  0  0
 19 41  1  0  0  0  0
 20 24  2  0  0  0  0
 20 42  1  0  0  0  0
 21 24  1  0  0  0  0
 21 43  1  0  0  0  0
 22 25  1  0  0  0  0
 22 44  1  0  0  0  0
 23 26  2  0  0  0  0
 23 45  1  0  0  0  0
 24 46  1  0  0  0  0
 25 27  2  0  0  0  0
 25 47  1  0  0  0  0
 26 27  1  0  0  0  0
 26 48  1  0  0  0  0
 27 49  1  0  0  0  0
M  ISO  1   1 125
M  END
> <PUBCHEM_COMPOUND_CID>
3036201

> <PUBCHEM_COMPOUND_CANONICALIZED>
1

> <PUBCHEM_CACTVS_COMPLEXITY>
481

> <PUBCHEM_CACTVS_HBOND_ACCEPTOR>
2

> <PUBCHEM_CACTVS_HBOND_DONOR>
0

> <PUBCHEM_CACTVS_ROTATABLE_BOND>
7

> <PUBCHEM_CACTVS_SUBSKEYS>
AAADceB6IAAAAgAAAAAAAAAAFgAAAAAAAAAwYMAAAAAAAAABUAAAHgAgAAAADATjmAYwBoMABACAAiBCAAACCAAgIAAIiAAOCIgOJiKEMRqDOCCkwBGYqAeAwOAOIAAAAAAAAABAAAAAAAAAAAAAAAAAAA==

> <PUBCHEM_IUPAC_OPENEYE_NAME>
1-[2-[4-[(Z)-2-(125I)iodanyl-1,2-diphenyl-vinyl]phenoxy]ethyl]aziridine

> <PUBCHEM_IUPAC_CAS_NAME>
1-[2-[4-[(Z)-2-(125I)iodanyl-1,2-diphenylethenyl]phenoxy]ethyl]aziridine

> <PUBCHEM_IUPAC_NAME_MARKUP>
1-[2-[4-[(<I>Z</I>)-2-(<SUP>125</SUP>I)iodanyl-1,2-diphenylethenyl]phenoxy]ethyl]aziridine

> <PUBCHEM_IUPAC_NAME>
1-[2-[4-[(Z)-2-(125I)iodanyl-1,2-diphenylethenyl]phenoxy]ethyl]aziridine

> <PUBCHEM_IUPAC_SYSTEMATIC_NAME>
1-[2-[4-[(Z)-2-(125I)iodanyl-1,2-diphenyl-ethenyl]phenoxy]ethyl]aziridine

> <PUBCHEM_IUPAC_TRADITIONAL_NAME>
1-[2-[4-[(Z)-2-(125I)iodanyl-1,2-diphenyl-vinyl]phenoxy]ethyl]ethylenimine

> <PUBCHEM_IUPAC_INCHI>
InChI=1S/C24H22INO/c25-24(21-9-5-2-6-10-21)23(19-7-3-1-4-8-19)20-11-13-22(14-12-20)27-18-17-26-15-16-26/h1-14H,15-18H2/b24-23-/i25-2

> <PUBCHEM_IUPAC_INCHIKEY>
YBRBURCLTCCSKW-LLRZNNDMSA-N

> <PUBCHEM_XLOGP3_AA>
6.8

> <PUBCHEM_EXACT_MASS>
465.07477

> <PUBCHEM_MOLECULAR_FORMULA>
C24H22INO

> <PUBCHEM_MOLECULAR_WEIGHT>
465.3

> <PUBCHEM_OPENEYE_CAN_SMILES>
C1CN1CCOC2=CC=C(C=C2)C(=C(C3=CC=CC=C3)I)C4=CC=CC=C4

> <PUBCHEM_OPENEYE_ISO_SMILES>
C1CN1CCOC2=CC=C(C=C2)/C(=C(/C3=CC=CC=C3)\[125I])/C4=CC=CC=C4

> <PUBCHEM_CACTVS_TPSA>
12.2

> <PUBCHEM_MONOISOTOPIC_WEIGHT>
465.07477

> <PUBCHEM_TOTAL_CHARGE>
0

> <PUBCHEM_HEAVY_ATOM_COUNT>
27

> <PUBCHEM_ATOM_DEF_STEREO_COUNT>
0

> <PUBCHEM_ATOM_UDEF_STEREO_COUNT>
0

> <PUBCHEM_BOND_DEF_STEREO_COUNT>
1

> <PUBCHEM_BOND_UDEF_STEREO_COUNT>
0

> <PUBCHEM_ISOTOPIC_ATOM_COUNT>
1

> <PUBCHEM_COMPONENT_COUNT>
1

> <PUBCHEM_CACTVS_TAUTO_COUNT>
1

> <PUBCHEM_COORDINATE_TYPE>
1
5
255

> <PUBCHEM_BONDANNOTATIONS>
10  13  8
11  14  8
15  18  8
15  19  8
17  22  8
17  23  8
18  20  8
19  21  8
20  24  8
21  24  8
22  25  8
23  26  8
25  27  8
26  27  8
8  10  8
8  11  8
9  13  8
9  14  8

$$$$
