MODEL 1
REMARK VINA RESULT:      -8.2      0.000      0.000
REMARK  Name = 3036201
REMARK  7 active torsions:
REMARK  status: ('A' for Active; 'I' for Inactive)
REMARK    1  A    between atoms: O_2  and  C_7
REMARK    2  A    between atoms: O_2  and  C_8
REMARK    3  A    between atoms: N_3  and  C_6
REMARK    4  A    between atoms: C_6  and  C_7
REMARK    5  A    between atoms: C_9  and  C_12
REMARK    6  A    between atoms: C_12  and  C_15
REMARK    7  A    between atoms: C_16  and  C_17
REMARK                            x       y       z     vdW  Elec       q    Type
REMARK                         _______ _______ _______ _____ _____    ______ ____
ROOT
ATOM      1  I   UNL     1      35.212  -3.243  17.019  0.00  0.00    -0.043 I 
ATOM      2  C   UNL     1      34.235  -3.281  17.230  0.00  0.00    +0.029 C 
ATOM      3  C   UNL     1      33.817  -2.568  17.793  0.00  0.00    +0.003 C 
ENDROOT
BRANCH   2   4
ATOM      4  C   UNL     1      33.677  -4.032  16.878  0.00  0.00    -0.011 A 
ATOM      5  C   UNL     1      33.237  -3.951  15.984  0.00  0.00    +0.009 A 
ATOM      6  C   UNL     1      32.678  -4.702  15.631  0.00  0.00    +0.001 A 
ATOM      7  C   UNL     1      32.560  -5.534  16.174  0.00  0.00    +0.000 A 
ATOM      8  C   UNL     1      33.000  -5.615  17.068  0.00  0.00    +0.001 A 
ATOM      9  C   UNL     1      33.559  -4.864  17.420  0.00  0.00    +0.009 A 
ENDBRANCH   2   4
BRANCH   3  10
ATOM     10  C   UNL     1      32.840  -2.606  18.004  0.00  0.00    -0.016 A 
ATOM     11  C   UNL     1      32.524  -3.086  18.822  0.00  0.00    +0.008 A 
ATOM     12  C   UNL     1      31.547  -3.125  19.032  0.00  0.00    +0.001 A 
ATOM     13  C   UNL     1      30.887  -2.683  18.425  0.00  0.00    +0.000 A 
ATOM     14  C   UNL     1      31.203  -2.203  17.607  0.00  0.00    +0.001 A 
ATOM     15  C   UNL     1      32.180  -2.164  17.396  0.00  0.00    +0.008 A 
ENDBRANCH   3  10
BRANCH   3  16
ATOM     16  C   UNL     1      34.375  -1.817  18.145  0.00  0.00    -0.016 A 
ATOM     17  C   UNL     1      34.547  -1.012  17.577  0.00  0.00    +0.012 A 
ATOM     18  C   UNL     1      35.105  -0.261  17.929  0.00  0.00    +0.046 A 
ATOM     19  C   UNL     1      35.492  -0.315  18.849  0.00  0.00    +0.121 A 
ATOM     20  C   UNL     1      35.321  -1.120  19.418  0.00  0.00    +0.046 A 
ATOM     21  C   UNL     1      34.763  -1.871  19.065  0.00  0.00    +0.012 A 
BRANCH  19  22
ATOM     22  O   UNL     1      36.051   0.436  19.201  0.00  0.00    -0.491 OA
BRANCH  22  23
ATOM     23  C   UNL     1      36.911   0.674  18.750  0.00  0.00    +0.244 C 
BRANCH  23  24
ATOM     24  C   UNL     1      37.490   1.398  19.127  0.00  0.00    +0.125 C 
BRANCH  24  25
ATOM     25  N   UNL     1      37.849   2.113  18.527  0.00  0.00    -0.297 NA
ATOM     26  C   UNL     1      38.048   2.453  17.608  0.00  0.00    +0.100 C 
ATOM     27  C   UNL     1      38.271   3.011  18.408  0.00  0.00    +0.100 C 
ENDBRANCH  24  25
ENDBRANCH  23  24
ENDBRANCH  22  23
ENDBRANCH  19  22
ENDBRANCH   3  16
TORSDOF 7
ENDMDL
MODEL 2
REMARK VINA RESULT:      -7.9      2.805      5.979
REMARK  Name = 3036201
REMARK  7 active torsions:
REMARK  status: ('A' for Active; 'I' for Inactive)
REMARK    1  A    between atoms: O_2  and  C_7
REMARK    2  A    between atoms: O_2  and  C_8
REMARK    3  A    between atoms: N_3  and  C_6
REMARK    4  A    between atoms: C_6  and  C_7
REMARK    5  A    between atoms: C_9  and  C_12
REMARK    6  A    between atoms: C_12  and  C_15
REMARK    7  A    between atoms: C_16  and  C_17
REMARK                            x       y       z     vdW  Elec       q    Type
REMARK                         _______ _______ _______ _____ _____    ______ ____
ROOT
ATOM      1  I   UNL     1      37.150  -2.079  19.262  0.00  0.00    -0.043 I 
ATOM      2  C   UNL     1      36.957  -1.371  18.583  0.00  0.00    +0.029 C 
ATOM      3  C   UNL     1      36.014  -1.195  18.298  0.00  0.00    +0.003 C 
ENDROOT
BRANCH   2   4
ATOM      4  C   UNL     1      37.705  -0.838  18.190  0.00  0.00    -0.011 A 
ATOM      5  C   UNL     1      38.167  -1.159  17.363  0.00  0.00    +0.009 A 
ATOM      6  C   UNL     1      38.916  -0.626  16.969  0.00  0.00    +0.001 A 
ATOM      7  C   UNL     1      39.203   0.229  17.402  0.00  0.00    +0.000 A 
ATOM      8  C   UNL     1      38.741   0.550  18.228  0.00  0.00    +0.001 A 
ATOM      9  C   UNL     1      37.992   0.017  18.622  0.00  0.00    +0.009 A 
ENDBRANCH   2   4
BRANCH   3  10
ATOM     10  C   UNL     1      35.821  -0.487  17.620  0.00  0.00    -0.016 A 
ATOM     11  C   UNL     1      35.840  -0.710  16.645  0.00  0.00    +0.008 A 
ATOM     12  C   UNL     1      35.646  -0.001  15.966  0.00  0.00    +0.001 A 
ATOM     13  C   UNL     1      35.433   0.930  16.262  0.00  0.00    +0.000 A 
ATOM     14  C   UNL     1      35.414   1.153  17.237  0.00  0.00    +0.001 A 
ATOM     15  C   UNL     1      35.608   0.444  17.916  0.00  0.00    +0.008 A 
ENDBRANCH   3  10
BRANCH   3  16
ATOM     16  C   UNL     1      35.265  -1.729  18.692  0.00  0.00    -0.016 A 
ATOM     17  C   UNL     1      34.937  -1.525  19.615  0.00  0.00    +0.012 A 
ATOM     18  C   UNL     1      34.189  -2.058  20.008  0.00  0.00    +0.046 A 
ATOM     19  C   UNL     1      33.768  -2.795  19.480  0.00  0.00    +0.121 A 
ATOM     20  C   UNL     1      34.096  -2.999  18.557  0.00  0.00    +0.046 A 
ATOM     21  C   UNL     1      34.845  -2.466  18.164  0.00  0.00    +0.012 A 
BRANCH  19  22
ATOM     22  O   UNL     1      33.019  -3.328  19.873  0.00  0.00    -0.491 OA
BRANCH  22  23
ATOM     23  C   UNL     1      32.130  -3.356  19.416  0.00  0.00    +0.244 C 
BRANCH  23  24
ATOM     24  C   UNL     1      31.296  -3.485  19.951  0.00  0.00    +0.125 C 
BRANCH  24  25
ATOM     25  N   UNL     1      30.402  -3.340  19.527  0.00  0.00    -0.297 NA
ATOM     26  C   UNL     1      29.852  -3.047  18.745  0.00  0.00    +0.100 C 
ATOM     27  C   UNL     1      29.404  -3.384  19.573  0.00  0.00    +0.100 C 
ENDBRANCH  24  25
ENDBRANCH  23  24
ENDBRANCH  22  23
ENDBRANCH  19  22
ENDBRANCH   3  16
TORSDOF 7
ENDMDL
MODEL 3
REMARK VINA RESULT:      -7.8      3.442      5.731
REMARK  Name = 3036201
REMARK  7 active torsions:
REMARK  status: ('A' for Active; 'I' for Inactive)
REMARK    1  A    between atoms: O_2  and  C_7
REMARK    2  A    between atoms: O_2  and  C_8
REMARK    3  A    between atoms: N_3  and  C_6
REMARK    4  A    between atoms: C_6  and  C_7
REMARK    5  A    between atoms: C_9  and  C_12
REMARK    6  A    between atoms: C_12  and  C_15
REMARK    7  A    between atoms: C_16  and  C_17
REMARK                            x       y       z     vdW  Elec       q    Type
REMARK                         _______ _______ _______ _____ _____    ______ ____
ROOT
ATOM      1  I   UNL     1      34.720  -1.990  17.438  0.00  0.00    -0.043 I 
ATOM      2  C   UNL     1      35.405  -1.273  17.571  0.00  0.00    +0.029 C 
ATOM      3  C   UNL     1      35.864  -1.179  18.455  0.00  0.00    +0.003 C 
ENDROOT
BRANCH   2   4
ATOM      4  C   UNL     1      35.630  -0.651  16.822  0.00  0.00    -0.011 A 
ATOM      5  C   UNL     1      35.131   0.210  16.719  0.00  0.00    +0.009 A 
ATOM      6  C   UNL     1      35.356   0.832  15.970  0.00  0.00    +0.001 A 
ATOM      7  C   UNL     1      36.080   0.594  15.322  0.00  0.00    +0.000 A 
ATOM      8  C   UNL     1      36.579  -0.267  15.425  0.00  0.00    +0.001 A 
ATOM      9  C   UNL     1      36.354  -0.889  16.174  0.00  0.00    +0.009 A 
ENDBRANCH   2   4
BRANCH   3  10
ATOM     10  C   UNL     1      36.548  -0.462  18.588  0.00  0.00    -0.016 A 
ATOM     11  C   UNL     1      37.511  -0.646  18.388  0.00  0.00    +0.008 A 
ATOM     12  C   UNL     1      38.195   0.070  18.522  0.00  0.00    +0.001 A 
ATOM     13  C   UNL     1      37.917   0.971  18.855  0.00  0.00    +0.000 A 
ATOM     14  C   UNL     1      36.955   1.155  19.055  0.00  0.00    +0.001 A 
ATOM     15  C   UNL     1      36.270   0.439  18.922  0.00  0.00    +0.008 A 
ENDBRANCH   3  10
BRANCH   3  16
ATOM     16  C   UNL     1      35.639  -1.801  19.204  0.00  0.00    -0.016 A 
ATOM     17  C   UNL     1      34.794  -1.674  19.723  0.00  0.00    +0.012 A 
ATOM     18  C   UNL     1      34.569  -2.296  20.473  0.00  0.00    +0.046 A 
ATOM     19  C   UNL     1      35.189  -3.046  20.703  0.00  0.00    +0.121 A 
ATOM     20  C   UNL     1      36.034  -3.174  20.184  0.00  0.00    +0.046 A 
ATOM     21  C   UNL     1      36.259  -2.551  19.435  0.00  0.00    +0.012 A 
BRANCH  19  22
ATOM     22  O   UNL     1      34.964  -3.669  21.453  0.00  0.00    -0.491 OA
BRANCH  22  23
ATOM     23  C   UNL     1      34.309  -3.389  22.156  0.00  0.00    +0.244 C 
BRANCH  23  24
ATOM     24  C   UNL     1      34.118  -3.993  22.929  0.00  0.00    +0.125 C 
BRANCH  24  25
ATOM     25  N   UNL     1      33.507  -3.691  23.661  0.00  0.00    -0.297 NA
ATOM     26  C   UNL     1      32.591  -3.441  23.976  0.00  0.00    +0.100 C 
ATOM     27  C   UNL     1      33.363  -3.416  24.611  0.00  0.00    +0.100 C 
ENDBRANCH  24  25
ENDBRANCH  23  24
ENDBRANCH  22  23
ENDBRANCH  19  22
ENDBRANCH   3  16
TORSDOF 7
ENDMDL
MODEL 4
REMARK VINA RESULT:      -7.8      3.308      4.895
REMARK  Name = 3036201
REMARK  7 active torsions:
REMARK  status: ('A' for Active; 'I' for Inactive)
REMARK    1  A    between atoms: O_2  and  C_7
REMARK    2  A    between atoms: O_2  and  C_8
REMARK    3  A    between atoms: N_3  and  C_6
REMARK    4  A    between atoms: C_6  and  C_7
REMARK    5  A    between atoms: C_9  and  C_12
REMARK    6  A    between atoms: C_12  and  C_15
REMARK    7  A    between atoms: C_16  and  C_17
REMARK                            x       y       z     vdW  Elec       q    Type
REMARK                         _______ _______ _______ _____ _____    ______ ____
ROOT
ATOM      1  I   UNL     1      39.346  -0.033  17.451  0.00  0.00    -0.043 I 
ATOM      2  C   UNL     1      38.465  -0.441  17.690  0.00  0.00    +0.029 C 
ATOM      3  C   UNL     1      37.679   0.145  17.886  0.00  0.00    +0.003 C 
ENDROOT
BRANCH   2   4
ATOM      4  C   UNL     1      38.370  -1.436  17.734  0.00  0.00    -0.011 A 
ATOM      5  C   UNL     1      38.094  -1.948  16.920  0.00  0.00    +0.009 A 
ATOM      6  C   UNL     1      37.999  -2.942  16.963  0.00  0.00    +0.001 A 
ATOM      7  C   UNL     1      38.179  -3.425  17.820  0.00  0.00    +0.000 A 
ATOM      8  C   UNL     1      38.455  -2.913  18.634  0.00  0.00    +0.001 A 
ATOM      9  C   UNL     1      38.550  -1.918  18.590  0.00  0.00    +0.009 A 
ENDBRANCH   2   4
BRANCH   3  10
ATOM     10  C   UNL     1      36.798  -0.263  18.125  0.00  0.00    -0.016 A 
ATOM     11  C   UNL     1      36.133  -0.472  17.408  0.00  0.00    +0.008 A 
ATOM     12  C   UNL     1      35.252  -0.880  17.647  0.00  0.00    +0.001 A 
ATOM     13  C   UNL     1      35.036  -1.079  18.604  0.00  0.00    +0.000 A 
ATOM     14  C   UNL     1      35.701  -0.869  19.320  0.00  0.00    +0.001 A 
ATOM     15  C   UNL     1      36.582  -0.461  19.081  0.00  0.00    +0.008 A 
ENDBRANCH   3  10
BRANCH   3  16
ATOM     16  C   UNL     1      37.774   1.140  17.842  0.00  0.00    -0.016 A 
ATOM     17  C   UNL     1      37.666   1.615  16.969  0.00  0.00    +0.012 A 
ATOM     18  C   UNL     1      37.761   2.609  16.926  0.00  0.00    +0.046 A 
ATOM     19  C   UNL     1      37.965   3.129  17.755  0.00  0.00    +0.121 A 
ATOM     20  C   UNL     1      38.073   2.654  18.629  0.00  0.00    +0.046 A 
ATOM     21  C   UNL     1      37.978   1.659  18.672  0.00  0.00    +0.012 A 
BRANCH  19  22
ATOM     22  O   UNL     1      38.060   4.123  17.712  0.00  0.00    -0.491 OA
BRANCH  22  23
ATOM     23  C   UNL     1      38.773   4.581  18.243  0.00  0.00    +0.244 C 
BRANCH  23  24
ATOM     24  C   UNL     1      38.759   5.575  18.347  0.00  0.00    +0.125 C 
BRANCH  24  25
ATOM     25  N   UNL     1      39.341   6.015  19.030  0.00  0.00    -0.297 NA
ATOM     26  C   UNL     1      40.214   6.076  19.515  0.00  0.00    +0.100 C 
ATOM     27  C   UNL     1      39.477   6.716  19.731  0.00  0.00    +0.100 C 
ENDBRANCH  24  25
ENDBRANCH  23  24
ENDBRANCH  22  23
ENDBRANCH  19  22
ENDBRANCH   3  16
TORSDOF 7
ENDMDL
MODEL 5
REMARK VINA RESULT:      -7.7      2.687      6.344
REMARK  Name = 3036201
REMARK  7 active torsions:
REMARK  status: ('A' for Active; 'I' for Inactive)
REMARK    1  A    between atoms: O_2  and  C_7
REMARK    2  A    between atoms: O_2  and  C_8
REMARK    3  A    between atoms: N_3  and  C_6
REMARK    4  A    between atoms: C_6  and  C_7
REMARK    5  A    between atoms: C_9  and  C_12
REMARK    6  A    between atoms: C_12  and  C_15
REMARK    7  A    between atoms: C_16  and  C_17
REMARK                            x       y       z     vdW  Elec       q    Type
REMARK                         _______ _______ _______ _____ _____    ______ ____
ROOT
ATOM      1  I   UNL     1      36.172  -1.807  18.601  0.00  0.00    -0.043 I 
ATOM      2  C   UNL     1      36.145  -0.970  18.055  0.00  0.00    +0.029 C 
ATOM      3  C   UNL     1      35.444  -0.854  17.351  0.00  0.00    +0.003 C 
ENDROOT
BRANCH   2   4
ATOM      4  C   UNL     1      36.819  -0.248  18.212  0.00  0.00    -0.011 A 
ATOM      5  C   UNL     1      37.684  -0.253  17.709  0.00  0.00    +0.009 A 
ATOM      6  C   UNL     1      38.358   0.469  17.867  0.00  0.00    +0.001 A 
ATOM      7  C   UNL     1      38.168   1.195  18.527  0.00  0.00    +0.000 A 
ATOM      8  C   UNL     1      37.303   1.200  19.030  0.00  0.00    +0.001 A 
ATOM      9  C   UNL     1      36.629   0.478  18.873  0.00  0.00    +0.009 A 
ENDBRANCH   2   4
BRANCH   3  10
ATOM     10  C   UNL     1      35.418  -0.017  16.804  0.00  0.00    -0.016 A 
ATOM     11  C   UNL     1      35.915   0.031  15.938  0.00  0.00    +0.008 A 
ATOM     12  C   UNL     1      35.888   0.868  15.392  0.00  0.00    +0.001 A 
ATOM     13  C   UNL     1      35.364   1.657  15.712  0.00  0.00    +0.000 A 
ATOM     14  C   UNL     1      34.867   1.610  16.578  0.00  0.00    +0.001 A 
ATOM     15  C   UNL     1      34.894   0.772  17.125  0.00  0.00    +0.008 A 
ENDBRANCH   3  10
BRANCH   3  16
ATOM     16  C   UNL     1      34.770  -1.576  17.193  0.00  0.00    -0.016 A 
ATOM     17  C   UNL     1      34.960  -2.302  16.532  0.00  0.00    +0.012 A 
ATOM     18  C   UNL     1      34.286  -3.023  16.374  0.00  0.00    +0.046 A 
ATOM     19  C   UNL     1      33.422  -3.019  16.878  0.00  0.00    +0.121 A 
ATOM     20  C   UNL     1      33.232  -2.293  17.539  0.00  0.00    +0.046 A 
ATOM     21  C   UNL     1      33.906  -1.572  17.696  0.00  0.00    +0.012 A 
BRANCH  19  22
ATOM     22  O   UNL     1      32.748  -3.741  16.720  0.00  0.00    -0.491 OA
BRANCH  22  23
ATOM     23  C   UNL     1      32.966  -4.688  16.954  0.00  0.00    +0.244 C 
BRANCH  23  24
ATOM     24  C   UNL     1      32.287  -5.408  16.808  0.00  0.00    +0.125 C 
BRANCH  24  25
ATOM     25  N   UNL     1      32.575  -6.365  16.763  0.00  0.00    -0.297 NA
ATOM     26  C   UNL     1      33.303  -7.048  16.713  0.00  0.00    +0.100 C 
ATOM     27  C   UNL     1      32.346  -7.337  16.734  0.00  0.00    +0.100 C 
ENDBRANCH  24  25
ENDBRANCH  23  24
ENDBRANCH  22  23
ENDBRANCH  19  22
ENDBRANCH   3  16
TORSDOF 7
ENDMDL
MODEL 6
REMARK VINA RESULT:      -7.6      3.687      5.968
REMARK  Name = 3036201
REMARK  7 active torsions:
REMARK  status: ('A' for Active; 'I' for Inactive)
REMARK    1  A    between atoms: O_2  and  C_7
REMARK    2  A    between atoms: O_2  and  C_8
REMARK    3  A    between atoms: N_3  and  C_6
REMARK    4  A    between atoms: C_6  and  C_7
REMARK    5  A    between atoms: C_9  and  C_12
REMARK    6  A    between atoms: C_12  and  C_15
REMARK    7  A    between atoms: C_16  and  C_17
REMARK                            x       y       z     vdW  Elec       q    Type
REMARK                         _______ _______ _______ _____ _____    ______ ____
ROOT
ATOM      1  I   UNL     1      34.829  -1.583  17.653  0.00  0.00    -0.043 I 
ATOM      2  C   UNL     1      35.503  -0.845  17.700  0.00  0.00    +0.029 C 
ATOM      3  C   UNL     1      36.182  -0.834  18.433  0.00  0.00    +0.003 C 
ENDROOT
BRANCH   2   4
ATOM      4  C   UNL     1      35.497  -0.119  17.012  0.00  0.00    -0.011 A 
ATOM      5  C   UNL     1      34.969   0.715  17.171  0.00  0.00    +0.009 A 
ATOM      6  C   UNL     1      34.964   1.442  16.484  0.00  0.00    +0.001 A 
ATOM      7  C   UNL     1      35.486   1.334  15.638  0.00  0.00    +0.000 A 
ATOM      8  C   UNL     1      36.014   0.499  15.479  0.00  0.00    +0.001 A 
ATOM      9  C   UNL     1      36.019  -0.227  16.166  0.00  0.00    +0.009 A 
ENDBRANCH   2   4
BRANCH   3  10
ATOM     10  C   UNL     1      36.856  -0.097  18.480  0.00  0.00    -0.016 A 
ATOM     11  C   UNL     1      36.660   0.727  19.013  0.00  0.00    +0.008 A 
ATOM     12  C   UNL     1      37.334   1.464  19.059  0.00  0.00    +0.001 A 
ATOM     13  C   UNL     1      38.203   1.378  18.573  0.00  0.00    +0.000 A 
ATOM     14  C   UNL     1      38.399   0.555  18.040  0.00  0.00    +0.001 A 
ATOM     15  C   UNL     1      37.725  -0.182  17.993  0.00  0.00    +0.008 A 
ENDBRANCH   3  10
BRANCH   3  16
ATOM     16  C   UNL     1      36.188  -1.561  19.121  0.00  0.00    -0.016 A 
ATOM     17  C   UNL     1      36.875  -2.286  19.076  0.00  0.00    +0.012 A 
ATOM     18  C   UNL     1      36.880  -3.012  19.763  0.00  0.00    +0.046 A 
ATOM     19  C   UNL     1      36.199  -3.013  20.495  0.00  0.00    +0.121 A 
ATOM     20  C   UNL     1      35.512  -2.288  20.540  0.00  0.00    +0.046 A 
ATOM     21  C   UNL     1      35.506  -1.562  19.853  0.00  0.00    +0.012 A 
BRANCH  19  22
ATOM     22  O   UNL     1      36.204  -3.740  21.183  0.00  0.00    -0.491 OA
BRANCH  22  23
ATOM     23  C   UNL     1      36.307  -4.694  20.901  0.00  0.00    +0.244 C 
BRANCH  23  24
ATOM     24  C   UNL     1      36.216  -5.426  21.575  0.00  0.00    +0.125 C 
BRANCH  24  25
ATOM     25  N   UNL     1      36.767  -6.257  21.488  0.00  0.00    -0.297 NA
ATOM     26  C   UNL     1      37.397  -6.827  20.961  0.00  0.00    +0.100 C 
ATOM     27  C   UNL     1      37.089  -7.126  21.865  0.00  0.00    +0.100 C 
ENDBRANCH  24  25
ENDBRANCH  23  24
ENDBRANCH  22  23
ENDBRANCH  19  22
ENDBRANCH   3  16
TORSDOF 7
ENDMDL
MODEL 7
REMARK VINA RESULT:      -7.6      3.651      6.079
REMARK  Name = 3036201
REMARK  7 active torsions:
REMARK  status: ('A' for Active; 'I' for Inactive)
REMARK    1  A    between atoms: O_2  and  C_7
REMARK    2  A    between atoms: O_2  and  C_8
REMARK    3  A    between atoms: N_3  and  C_6
REMARK    4  A    between atoms: C_6  and  C_7
REMARK    5  A    between atoms: C_9  and  C_12
REMARK    6  A    between atoms: C_12  and  C_15
REMARK    7  A    between atoms: C_16  and  C_17
REMARK                            x       y       z     vdW  Elec       q    Type
REMARK                         _______ _______ _______ _____ _____    ______ ____
ROOT
ATOM      1  I   UNL     1      36.039   2.266  16.540  0.00  0.00    -0.043 I 
ATOM      2  C   UNL     1      36.635   1.484  16.722  0.00  0.00    +0.029 C 
ATOM      3  C   UNL     1      37.557   1.632  17.080  0.00  0.00    +0.003 C 
ENDROOT
BRANCH   2   4
ATOM      4  C   UNL     1      36.310   0.555  16.546  0.00  0.00    -0.011 A 
ATOM      5  C   UNL     1      35.826   0.051  17.262  0.00  0.00    +0.009 A 
ATOM      6  C   UNL     1      35.501  -0.878  17.086  0.00  0.00    +0.001 A 
ATOM      7  C   UNL     1      35.659  -1.303  16.195  0.00  0.00    +0.000 A 
ATOM      8  C   UNL     1      36.143  -0.799  15.480  0.00  0.00    +0.001 A 
ATOM      9  C   UNL     1      36.468   0.130  15.655  0.00  0.00    +0.009 A 
ENDBRANCH   2   4
BRANCH   3  10
ATOM     10  C   UNL     1      38.154   0.850  17.262  0.00  0.00    -0.016 A 
ATOM     11  C   UNL     1      38.767   0.512  16.548  0.00  0.00    +0.008 A 
ATOM     12  C   UNL     1      39.363  -0.270  16.731  0.00  0.00    +0.001 A 
ATOM     13  C   UNL     1      39.347  -0.713  17.627  0.00  0.00    +0.000 A 
ATOM     14  C   UNL     1      38.734  -0.374  18.341  0.00  0.00    +0.001 A 
ATOM     15  C   UNL     1      38.138   0.407  18.159  0.00  0.00    +0.008 A 
ENDBRANCH   3  10
BRANCH   3  16
ATOM     16  C   UNL     1      37.883   2.561  17.256  0.00  0.00    -0.016 A 
ATOM     17  C   UNL     1      38.206   3.129  16.499  0.00  0.00    +0.012 A 
ATOM     18  C   UNL     1      38.532   4.058  16.675  0.00  0.00    +0.046 A 
ATOM     19  C   UNL     1      38.533   4.419  17.607  0.00  0.00    +0.121 A 
ATOM     20  C   UNL     1      38.210   3.851  18.364  0.00  0.00    +0.046 A 
ATOM     21  C   UNL     1      37.884   2.922  18.188  0.00  0.00    +0.012 A 
BRANCH  19  22
ATOM     22  O   UNL     1      38.859   5.348  17.783  0.00  0.00    -0.491 OA
BRANCH  22  23
ATOM     23  C   UNL     1      39.335   5.558  18.637  0.00  0.00    +0.244 C 
BRANCH  23  24
ATOM     24  C   UNL     1      39.634   6.494  18.826  0.00  0.00    +0.125 C 
BRANCH  24  25
ATOM     25  N   UNL     1      40.282   6.672  19.566  0.00  0.00    -0.297 NA
ATOM     26  C   UNL     1      41.037   6.369  20.147  0.00  0.00    +0.100 C 
ATOM     27  C   UNL     1      40.648   7.283  20.268  0.00  0.00    +0.100 C 
ENDBRANCH  24  25
ENDBRANCH  23  24
ENDBRANCH  22  23
ENDBRANCH  19  22
ENDBRANCH   3  16
TORSDOF 7
ENDMDL
MODEL 8
REMARK VINA RESULT:      -7.5      2.958      6.174
REMARK  Name = 3036201
REMARK  7 active torsions:
REMARK  status: ('A' for Active; 'I' for Inactive)
REMARK    1  A    between atoms: O_2  and  C_7
REMARK    2  A    between atoms: O_2  and  C_8
REMARK    3  A    between atoms: N_3  and  C_6
REMARK    4  A    between atoms: C_6  and  C_7
REMARK    5  A    between atoms: C_9  and  C_12
REMARK    6  A    between atoms: C_12  and  C_15
REMARK    7  A    between atoms: C_16  and  C_17
REMARK                            x       y       z     vdW  Elec       q    Type
REMARK                         _______ _______ _______ _____ _____    ______ ____
ROOT
ATOM      1  I   UNL     1      35.713  -0.157  18.659  0.00  0.00    -0.043 I 
ATOM      2  C   UNL     1      36.478  -0.776  18.481  0.00  0.00    +0.029 C 
ATOM      3  C   UNL     1      36.394  -1.749  18.691  0.00  0.00    +0.003 C 
ENDROOT
BRANCH   2   4
ATOM      4  C   UNL     1      37.328  -0.420  18.092  0.00  0.00    -0.011 A 
ATOM      5  C   UNL     1      37.448  -0.385  17.100  0.00  0.00    +0.009 A 
ATOM      6  C   UNL     1      38.298  -0.030  16.711  0.00  0.00    +0.001 A 
ATOM      7  C   UNL     1      39.028   0.291  17.314  0.00  0.00    +0.000 A 
ATOM      8  C   UNL     1      38.909   0.256  18.307  0.00  0.00    +0.001 A 
ATOM      9  C   UNL     1      38.059  -0.100  18.695  0.00  0.00    +0.009 A 
ENDBRANCH   2   4
BRANCH   3  10
ATOM     10  C   UNL     1      37.159  -2.368  18.513  0.00  0.00    -0.016 A 
ATOM     11  C   UNL     1      37.841  -2.537  19.224  0.00  0.00    +0.008 A 
ATOM     12  C   UNL     1      38.607  -3.156  19.046  0.00  0.00    +0.001 A 
ATOM     13  C   UNL     1      38.690  -3.605  18.156  0.00  0.00    +0.000 A 
ATOM     14  C   UNL     1      38.008  -3.435  17.445  0.00  0.00    +0.001 A 
ATOM     15  C   UNL     1      37.242  -2.817  17.623  0.00  0.00    +0.008 A 
ENDBRANCH   3  10
BRANCH   3  16
ATOM     16  C   UNL     1      35.544  -2.105  19.080  0.00  0.00    -0.016 A 
ATOM     17  C   UNL     1      34.832  -2.468  18.478  0.00  0.00    +0.012 A 
ATOM     18  C   UNL     1      33.982  -2.823  18.867  0.00  0.00    +0.046 A 
ATOM     19  C   UNL     1      33.844  -2.816  19.857  0.00  0.00    +0.121 A 
ATOM     20  C   UNL     1      34.555  -2.453  20.459  0.00  0.00    +0.046 A 
ATOM     21  C   UNL     1      35.405  -2.098  20.070  0.00  0.00    +0.012 A 
BRANCH  19  22
ATOM     22  O   UNL     1      32.994  -3.171  20.246  0.00  0.00    -0.491 OA
BRANCH  22  23
ATOM     23  C   UNL     1      32.169  -3.221  19.683  0.00  0.00    +0.244 C 
BRANCH  23  24
ATOM     24  C   UNL     1      31.287  -3.431  20.105  0.00  0.00    +0.125 C 
BRANCH  24  25
ATOM     25  N   UNL     1      30.442  -3.315  19.583  0.00  0.00    -0.297 NA
ATOM     26  C   UNL     1      29.975  -3.057  18.737  0.00  0.00    +0.100 C 
ATOM     27  C   UNL     1      29.445  -3.371  19.525  0.00  0.00    +0.100 C 
ENDBRANCH  24  25
ENDBRANCH  23  24
ENDBRANCH  22  23
ENDBRANCH  19  22
ENDBRANCH   3  16
TORSDOF 7
ENDMDL
MODEL 9
REMARK VINA RESULT:      -7.5      5.434     11.210
REMARK  Name = 3036201
REMARK  7 active torsions:
REMARK  status: ('A' for Active; 'I' for Inactive)
REMARK    1  A    between atoms: O_2  and  C_7
REMARK    2  A    between atoms: O_2  and  C_8
REMARK    3  A    between atoms: N_3  and  C_6
REMARK    4  A    between atoms: C_6  and  C_7
REMARK    5  A    between atoms: C_9  and  C_12
REMARK    6  A    between atoms: C_12  and  C_15
REMARK    7  A    between atoms: C_16  and  C_17
REMARK                            x       y       z     vdW  Elec       q    Type
REMARK                         _______ _______ _______ _____ _____    ______ ____
ROOT
ATOM      1  I   UNL     1      38.281   7.469  18.226  0.00  0.00    -0.043 I 
ATOM      2  C   UNL     1      39.193   7.425  18.633  0.00  0.00    +0.029 C 
ATOM      3  C   UNL     1      39.721   6.577  18.588  0.00  0.00    +0.003 C 
ENDROOT
BRANCH   2   4
ATOM      4  C   UNL     1      39.578   8.229  19.087  0.00  0.00    -0.011 A 
ATOM      5  C   UNL     1      39.411   8.382  20.061  0.00  0.00    +0.009 A 
ATOM      6  C   UNL     1      39.796   9.186  20.514  0.00  0.00    +0.001 A 
ATOM      7  C   UNL     1      40.348   9.838  19.993  0.00  0.00    +0.000 A 
ATOM      8  C   UNL     1      40.514   9.685  19.019  0.00  0.00    +0.001 A 
ATOM      9  C   UNL     1      40.130   8.881  18.566  0.00  0.00    +0.009 A 
ENDBRANCH   2   4
BRANCH   3  10
ATOM     10  C   UNL     1      40.633   6.533  18.995  0.00  0.00    -0.016 A 
ATOM     11  C   UNL     1      40.739   6.289  19.959  0.00  0.00    +0.008 A 
ATOM     12  C   UNL     1      41.651   6.244  20.366  0.00  0.00    +0.001 A 
ATOM     13  C   UNL     1      42.457   6.444  19.810  0.00  0.00    +0.000 A 
ATOM     14  C   UNL     1      42.351   6.688  18.846  0.00  0.00    +0.001 A 
ATOM     15  C   UNL     1      41.439   6.732  18.438  0.00  0.00    +0.008 A 
ENDBRANCH   3  10
BRANCH   3  16
ATOM     16  C   UNL     1      39.336   5.773  18.135  0.00  0.00    -0.016 A 
ATOM     17  C   UNL     1      38.895   5.057  18.676  0.00  0.00    +0.012 A 
ATOM     18  C   UNL     1      38.510   4.253  18.223  0.00  0.00    +0.046 A 
ATOM     19  C   UNL     1      38.566   4.164  17.228  0.00  0.00    +0.121 A 
ATOM     20  C   UNL     1      39.007   4.881  16.687  0.00  0.00    +0.046 A 
ATOM     21  C   UNL     1      39.392   5.685  17.140  0.00  0.00    +0.012 A 
BRANCH  19  22
ATOM     22  O   UNL     1      38.182   3.360  16.775  0.00  0.00    -0.491 OA
BRANCH  22  23
ATOM     23  C   UNL     1      37.199   3.308  16.599  0.00  0.00    +0.244 C 
BRANCH  23  24
ATOM     24  C   UNL     1      36.767   2.422  16.430  0.00  0.00    +0.125 C 
BRANCH  24  25
ATOM     25  N   UNL     1      35.773   2.358  16.341  0.00  0.00    -0.297 NA
ATOM     26  C   UNL     1      34.900   2.764  16.070  0.00  0.00    +0.100 C 
ATOM     27  C   UNL     1      34.924   1.843  16.458  0.00  0.00    +0.100 C 
ENDBRANCH  24  25
ENDBRANCH  23  24
ENDBRANCH  22  23
ENDBRANCH  19  22
ENDBRANCH   3  16
TORSDOF 7
ENDMDL
MODEL 10
REMARK VINA RESULT:      -7.5      2.850      4.343
REMARK  Name = 3036201
REMARK  7 active torsions:
REMARK  status: ('A' for Active; 'I' for Inactive)
REMARK    1  A    between atoms: O_2  and  C_7
REMARK    2  A    between atoms: O_2  and  C_8
REMARK    3  A    between atoms: N_3  and  C_6
REMARK    4  A    between atoms: C_6  and  C_7
REMARK    5  A    between atoms: C_9  and  C_12
REMARK    6  A    between atoms: C_12  and  C_15
REMARK    7  A    between atoms: C_16  and  C_17
REMARK                            x       y       z     vdW  Elec       q    Type
REMARK                         _______ _______ _______ _____ _____    ______ ____
ROOT
ATOM      1  I   UNL     1      36.658   0.550  18.153  0.00  0.00    -0.043 I 
ATOM      2  C   UNL     1      36.099  -0.270  18.027  0.00  0.00    +0.029 C 
ATOM      3  C   UNL     1      35.449  -0.320  17.269  0.00  0.00    +0.003 C 
ENDROOT
BRANCH   2   4
ATOM      4  C   UNL     1      36.190  -1.039  18.659  0.00  0.00    -0.011 A 
ATOM      5  C   UNL     1      36.876  -1.747  18.490  0.00  0.00    +0.009 A 
ATOM      6  C   UNL     1      36.967  -2.516  19.123  0.00  0.00    +0.001 A 
ATOM      7  C   UNL     1      36.372  -2.578  19.924  0.00  0.00    +0.000 A 
ATOM      8  C   UNL     1      35.685  -1.871  20.093  0.00  0.00    +0.001 A 
ATOM      9  C   UNL     1      35.594  -1.101  19.460  0.00  0.00    +0.009 A 
ENDBRANCH   2   4
BRANCH   3  10
ATOM     10  C   UNL     1      34.890  -1.139  17.143  0.00  0.00    -0.016 A 
ATOM     11  C   UNL     1      33.993  -1.205  17.581  0.00  0.00    +0.008 A 
ATOM     12  C   UNL     1      33.434  -2.024  17.455  0.00  0.00    +0.001 A 
ATOM     13  C   UNL     1      33.771  -2.778  16.891  0.00  0.00    +0.000 A 
ATOM     14  C   UNL     1      34.668  -2.712  16.453  0.00  0.00    +0.001 A 
ATOM     15  C   UNL     1      35.227  -1.893  16.579  0.00  0.00    +0.008 A 
ENDBRANCH   3  10
BRANCH   3  16
ATOM     16  C   UNL     1      35.358   0.450  16.637  0.00  0.00    -0.016 A 
ATOM     17  C   UNL     1      35.831   0.432  15.756  0.00  0.00    +0.012 A 
ATOM     18  C   UNL     1      35.740   1.201  15.124  0.00  0.00    +0.046 A 
ATOM     19  C   UNL     1      35.176   1.988  15.372  0.00  0.00    +0.121 A 
ATOM     20  C   UNL     1      34.702   2.006  16.253  0.00  0.00    +0.046 A 
ATOM     21  C   UNL     1      34.793   1.237  16.885  0.00  0.00    +0.012 A 
BRANCH  19  22
ATOM     22  O   UNL     1      35.085   2.758  14.740  0.00  0.00    -0.491 OA
BRANCH  22  23
ATOM     23  C   UNL     1      35.715   3.532  14.801  0.00  0.00    +0.244 C 
BRANCH  23  24
ATOM     24  C   UNL     1      35.600   4.319  14.195  0.00  0.00    +0.125 C 
BRANCH  24  25
ATOM     25  N   UNL     1      36.147   5.144  14.337  0.00  0.00    -0.297 NA
ATOM     26  C   UNL     1      36.944   5.596  14.737  0.00  0.00    +0.100 C 
ATOM     27  C   UNL     1      36.297   6.121  14.184  0.00  0.00    +0.100 C 
ENDBRANCH  24  25
ENDBRANCH  23  24
ENDBRANCH  22  23
ENDBRANCH  19  22
ENDBRANCH   3  16
TORSDOF 7
ENDMDL
