MODEL 1
REMARK VINA RESULT:      -8.0      0.000      0.000
REMARK  Name = 129651684
REMARK  13 active torsions:
REMARK  status: ('A' for Active; 'I' for Inactive)
REMARK    1  A    between atoms: O_1  and  C_6
REMARK    2  A    between atoms: O_1  and  C_27
REMARK    3  A    between atoms: O_2  and  C_17
REMARK    4  A    between atoms: O_2  and  C_20
REMARK    5  A    between atoms: N_3  and  C_21
REMARK    6  A    between atoms: N_3  and  C_29
REMARK    7  A    between atoms: N_3  and  C_30
REMARK    8  A    between atoms: C_4  and  C_6
REMARK    9  A    between atoms: C_4  and  C_8
REMARK   10  A    between atoms: C_5  and  C_7
REMARK   11  A    between atoms: C_5  and  C_9
REMARK   12  A    between atoms: C_6  and  C_10
REMARK   13  A    between atoms: C_20  and  C_21
REMARK                            x       y       z     vdW  Elec       q    Type
REMARK                         _______ _______ _______ _____ _____    ______ ____
ROOT
ATOM      1  C   UNL     1      34.074  -3.361  17.235  0.00  0.00    -0.004 C 
ATOM      2  C   UNL     1      33.674  -2.631  17.788  0.00  0.00    -0.005 C 
ENDROOT
BRANCH   1   3
ATOM      3  C   UNL     1      33.497  -4.102  16.892  0.00  0.00    -0.019 A 
ATOM      4  C   UNL     1      33.369  -4.929  17.439  0.00  0.00    +0.008 A 
ATOM      5  C   UNL     1      32.792  -5.671  17.097  0.00  0.00    +0.001 A 
ATOM      6  C   UNL     1      32.343  -5.585  16.207  0.00  0.00    +0.000 A 
ATOM      7  C   UNL     1      32.472  -4.758  15.660  0.00  0.00    +0.001 A 
ATOM      8  C   UNL     1      33.049  -4.017  16.003  0.00  0.00    +0.008 A 
ENDBRANCH   1   3
BRANCH   2   9
ATOM      9  C   UNL     1      32.696  -2.642  18.000  0.00  0.00    -0.017 A 
ATOM     10  C   UNL     1      32.366  -3.124  18.811  0.00  0.00    +0.008 A 
ATOM     11  C   UNL     1      31.389  -3.135  19.023  0.00  0.00    +0.001 A 
ATOM     12  C   UNL     1      30.742  -2.665  18.422  0.00  0.00    +0.000 A 
ATOM     13  C   UNL     1      31.072  -2.183  17.611  0.00  0.00    +0.001 A 
ATOM     14  C   UNL     1      32.049  -2.172  17.399  0.00  0.00    +0.008 A 
ENDBRANCH   2   9
BRANCH   2  15
ATOM     15  C   UNL     1      34.251  -1.889  18.131  0.00  0.00    -0.017 A 
ATOM     16  C   UNL     1      34.637  -1.941  19.052  0.00  0.00    +0.012 A 
ATOM     17  C   UNL     1      35.214  -1.199  19.394  0.00  0.00    +0.046 A 
ATOM     18  C   UNL     1      35.405  -0.406  18.816  0.00  0.00    +0.121 A 
ATOM     19  C   UNL     1      35.018  -0.354  17.895  0.00  0.00    +0.046 A 
ATOM     20  C   UNL     1      34.441  -1.096  17.552  0.00  0.00    +0.012 A 
BRANCH  18  21
ATOM     21  O   UNL     1      35.982   0.336  19.158  0.00  0.00    -0.491 OA
BRANCH  21  22
ATOM     22  C   UNL     1      36.882   0.495  18.755  0.00  0.00    +0.244 C 
BRANCH  22  23
ATOM     23  C   UNL     1      37.443   1.261  19.070  0.00  0.00    +0.124 C 
BRANCH  23  24
ATOM     24  N   UNL     1      38.075   1.711  18.439  0.00  0.00    -0.305 NA
ATOM     25  C   UNL     1      38.634   1.164  17.816  0.00  0.00    +0.104 C 
ATOM     26  C   UNL     1      38.148   2.708  18.430  0.00  0.00    +0.104 C 
ENDBRANCH  23  24
ENDBRANCH  22  23
ENDBRANCH  21  22
ENDBRANCH  18  21
ENDBRANCH   2  15
BRANCH   1  27
ATOM     27  C   UNL     1      35.051  -3.349  17.023  0.00  0.00    +0.146 C 
ATOM     28  C   UNL     1      35.376  -2.914  16.184  0.00  0.00    +0.043 C 
BRANCH  27  29
ATOM     29  O   UNL     1      35.704  -3.773  17.652  0.00  0.00    -0.375 OA
ATOM     30  C   UNL     1      36.607  -4.050  17.323  0.00  0.00    +0.194 C 
ENDBRANCH  27  29
ENDBRANCH   1  27
TORSDOF 9
ENDMDL
MODEL 2
REMARK VINA RESULT:      -7.7      3.415      4.511
REMARK  Name = 129651684
REMARK  13 active torsions:
REMARK  status: ('A' for Active; 'I' for Inactive)
REMARK    1  A    between atoms: O_1  and  C_6
REMARK    2  A    between atoms: O_1  and  C_27
REMARK    3  A    between atoms: O_2  and  C_17
REMARK    4  A    between atoms: O_2  and  C_20
REMARK    5  A    between atoms: N_3  and  C_21
REMARK    6  A    between atoms: N_3  and  C_29
REMARK    7  A    between atoms: N_3  and  C_30
REMARK    8  A    between atoms: C_4  and  C_6
REMARK    9  A    between atoms: C_4  and  C_8
REMARK   10  A    between atoms: C_5  and  C_7
REMARK   11  A    between atoms: C_5  and  C_9
REMARK   12  A    between atoms: C_6  and  C_10
REMARK   13  A    between atoms: C_20  and  C_21
REMARK                            x       y       z     vdW  Elec       q    Type
REMARK                         _______ _______ _______ _____ _____    ______ ____
ROOT
ATOM      1  C   UNL     1      33.386  -4.325  18.456  0.00  0.00    -0.004 C 
ATOM      2  C   UNL     1      32.830  -3.664  18.959  0.00  0.00    -0.005 C 
ENDROOT
BRANCH   1   3
ATOM      3  C   UNL     1      33.228  -4.471  17.479  0.00  0.00    -0.019 A 
ATOM      4  C   UNL     1      32.561  -5.152  17.177  0.00  0.00    +0.008 A 
ATOM      5  C   UNL     1      32.402  -5.298  16.200  0.00  0.00    +0.001 A 
ATOM      6  C   UNL     1      32.911  -4.762  15.526  0.00  0.00    +0.000 A 
ATOM      7  C   UNL     1      33.578  -4.081  15.828  0.00  0.00    +0.001 A 
ATOM      8  C   UNL     1      33.736  -3.936  16.805  0.00  0.00    +0.008 A 
ENDBRANCH   1   3
BRANCH   2   9
ATOM      9  C   UNL     1      32.116  -3.148  18.486  0.00  0.00    -0.017 A 
ATOM     10  C   UNL     1      31.170  -3.473  18.502  0.00  0.00    +0.008 A 
ATOM     11  C   UNL     1      30.456  -2.957  18.028  0.00  0.00    +0.001 A 
ATOM     12  C   UNL     1      30.688  -2.116  17.539  0.00  0.00    +0.000 A 
ATOM     13  C   UNL     1      31.634  -1.791  17.523  0.00  0.00    +0.001 A 
ATOM     14  C   UNL     1      32.348  -2.307  17.996  0.00  0.00    +0.008 A 
ENDBRANCH   2   9
BRANCH   2  15
ATOM     15  C   UNL     1      32.988  -3.518  19.936  0.00  0.00    -0.017 A 
ATOM     16  C   UNL     1      32.453  -4.027  20.610  0.00  0.00    +0.012 A 
ATOM     17  C   UNL     1      32.611  -3.881  21.587  0.00  0.00    +0.046 A 
ATOM     18  C   UNL     1      33.304  -3.227  21.889  0.00  0.00    +0.121 A 
ATOM     19  C   UNL     1      33.839  -2.718  21.214  0.00  0.00    +0.046 A 
ATOM     20  C   UNL     1      33.681  -2.863  20.238  0.00  0.00    +0.012 A 
BRANCH  18  21
ATOM     21  O   UNL     1      33.462  -3.081  22.865  0.00  0.00    -0.491 OA
BRANCH  21  22
ATOM     22  C   UNL     1      32.745  -2.677  23.433  0.00  0.00    +0.244 C 
BRANCH  22  23
ATOM     23  C   UNL     1      32.879  -2.589  24.420  0.00  0.00    +0.124 C 
BRANCH  23  24
ATOM     24  N   UNL     1      32.148  -2.219  24.993  0.00  0.00    -0.305 NA
ATOM     25  C   UNL     1      31.776  -2.765  25.744  0.00  0.00    +0.104 C 
ATOM     26  C   UNL     1      31.788  -1.303  24.815  0.00  0.00    +0.104 C 
ENDBRANCH  23  24
ENDBRANCH  22  23
ENDBRANCH  21  22
ENDBRANCH  18  21
ENDBRANCH   2  15
BRANCH   1  27
ATOM     27  C   UNL     1      34.100  -4.841  18.929  0.00  0.00    +0.146 C 
ATOM     28  C   UNL     1      35.036  -4.492  18.954  0.00  0.00    +0.043 C 
BRANCH  27  29
ATOM     29  O   UNL     1      33.877  -5.707  19.378  0.00  0.00    -0.375 OA
ATOM     30  C   UNL     1      34.599  -6.372  19.568  0.00  0.00    +0.194 C 
ENDBRANCH  27  29
ENDBRANCH   1  27
TORSDOF 9
ENDMDL
MODEL 3
REMARK VINA RESULT:      -7.6      2.674      5.563
REMARK  Name = 129651684
REMARK  13 active torsions:
REMARK  status: ('A' for Active; 'I' for Inactive)
REMARK    1  A    between atoms: O_1  and  C_6
REMARK    2  A    between atoms: O_1  and  C_27
REMARK    3  A    between atoms: O_2  and  C_17
REMARK    4  A    between atoms: O_2  and  C_20
REMARK    5  A    between atoms: N_3  and  C_21
REMARK    6  A    between atoms: N_3  and  C_29
REMARK    7  A    between atoms: N_3  and  C_30
REMARK    8  A    between atoms: C_4  and  C_6
REMARK    9  A    between atoms: C_4  and  C_8
REMARK   10  A    between atoms: C_5  and  C_7
REMARK   11  A    between atoms: C_5  and  C_9
REMARK   12  A    between atoms: C_6  and  C_10
REMARK   13  A    between atoms: C_20  and  C_21
REMARK                            x       y       z     vdW  Elec       q    Type
REMARK                         _______ _______ _______ _____ _____    ______ ____
ROOT
ATOM      1  C   UNL     1      35.673  -1.005  17.325  0.00  0.00    -0.004 C 
ATOM      2  C   UNL     1      36.173  -0.885  18.183  0.00  0.00    -0.005 C 
ENDROOT
BRANCH   1   3
ATOM      3  C   UNL     1      35.868  -0.411  16.545  0.00  0.00    -0.019 A 
ATOM      4  C   UNL     1      36.572  -0.670  15.884  0.00  0.00    +0.008 A 
ATOM      5  C   UNL     1      36.768  -0.076  15.103  0.00  0.00    +0.001 A 
ATOM      6  C   UNL     1      36.259   0.777  14.984  0.00  0.00    +0.000 A 
ATOM      7  C   UNL     1      35.555   1.036  15.646  0.00  0.00    +0.001 A 
ATOM      8  C   UNL     1      35.360   0.442  16.426  0.00  0.00    +0.008 A 
ENDBRANCH   1   3
BRANCH   2   9
ATOM      9  C   UNL     1      36.869  -0.171  18.260  0.00  0.00    -0.017 A 
ATOM     10  C   UNL     1      37.817  -0.367  18.009  0.00  0.00    +0.008 A 
ATOM     11  C   UNL     1      38.513   0.347  18.086  0.00  0.00    +0.001 A 
ATOM     12  C   UNL     1      38.261   1.257  18.414  0.00  0.00    +0.000 A 
ATOM     13  C   UNL     1      37.313   1.454  18.665  0.00  0.00    +0.001 A 
ATOM     14  C   UNL     1      36.617   0.740  18.588  0.00  0.00    +0.008 A 
ENDBRANCH   2   9
BRANCH   2  15
ATOM     15  C   UNL     1      35.978  -1.479  18.963  0.00  0.00    -0.017 A 
ATOM     16  C   UNL     1      35.213  -1.269  19.572  0.00  0.00    +0.012 A 
ATOM     17  C   UNL     1      35.018  -1.863  20.353  0.00  0.00    +0.046 A 
ATOM     18  C   UNL     1      35.587  -2.667  20.524  0.00  0.00    +0.121 A 
ATOM     19  C   UNL     1      36.352  -2.877  19.915  0.00  0.00    +0.046 A 
ATOM     20  C   UNL     1      36.547  -2.283  19.134  0.00  0.00    +0.012 A 
BRANCH  18  21
ATOM     21  O   UNL     1      35.391  -3.261  21.304  0.00  0.00    -0.491 OA
BRANCH  21  22
ATOM     22  C   UNL     1      34.445  -3.469  21.549  0.00  0.00    +0.244 C 
BRANCH  22  23
ATOM     23  C   UNL     1      34.246  -3.995  22.376  0.00  0.00    +0.124 C 
BRANCH  23  24
ATOM     24  N   UNL     1      33.329  -3.974  22.774  0.00  0.00    -0.305 NA
ATOM     25  C   UNL     1      33.184  -3.571  23.678  0.00  0.00    +0.104 C 
ATOM     26  C   UNL     1      32.556  -4.357  22.268  0.00  0.00    +0.104 C 
ENDBRANCH  23  24
ENDBRANCH  22  23
ENDBRANCH  21  22
ENDBRANCH  18  21
ENDBRANCH   2  15
BRANCH   1  27
ATOM     27  C   UNL     1      34.977  -1.719  17.248  0.00  0.00    +0.146 C 
ATOM     28  C   UNL     1      34.021  -1.510  17.456  0.00  0.00    +0.043 C 
BRANCH  27  29
ATOM     29  O   UNL     1      35.237  -2.641  16.963  0.00  0.00    -0.375 OA
ATOM     30  C   UNL     1      34.551  -3.255  16.572  0.00  0.00    +0.194 C 
ENDBRANCH  27  29
ENDBRANCH   1  27
TORSDOF 9
ENDMDL
MODEL 4
REMARK VINA RESULT:      -7.6      2.304      6.018
REMARK  Name = 129651684
REMARK  13 active torsions:
REMARK  status: ('A' for Active; 'I' for Inactive)
REMARK    1  A    between atoms: O_1  and  C_6
REMARK    2  A    between atoms: O_1  and  C_27
REMARK    3  A    between atoms: O_2  and  C_17
REMARK    4  A    between atoms: O_2  and  C_20
REMARK    5  A    between atoms: N_3  and  C_21
REMARK    6  A    between atoms: N_3  and  C_29
REMARK    7  A    between atoms: N_3  and  C_30
REMARK    8  A    between atoms: C_4  and  C_6
REMARK    9  A    between atoms: C_4  and  C_8
REMARK   10  A    between atoms: C_5  and  C_7
REMARK   11  A    between atoms: C_5  and  C_9
REMARK   12  A    between atoms: C_6  and  C_10
REMARK   13  A    between atoms: C_20  and  C_21
REMARK                            x       y       z     vdW  Elec       q    Type
REMARK                         _______ _______ _______ _____ _____    ______ ____
ROOT
ATOM      1  C   UNL     1      36.280  -0.724  18.042  0.00  0.00    -0.004 C 
ATOM      2  C   UNL     1      35.567  -0.653  17.345  0.00  0.00    -0.005 C 
ENDROOT
BRANCH   1   3
ATOM      3  C   UNL     1      36.915   0.034  18.187  0.00  0.00    -0.019 A 
ATOM      4  C   UNL     1      36.705   0.740  18.863  0.00  0.00    +0.008 A 
ATOM      5  C   UNL     1      37.340   1.499  19.008  0.00  0.00    +0.001 A 
ATOM      6  C   UNL     1      38.186   1.551  18.477  0.00  0.00    +0.000 A 
ATOM      7  C   UNL     1      38.396   0.845  17.801  0.00  0.00    +0.001 A 
ATOM      8  C   UNL     1      37.761   0.087  17.656  0.00  0.00    +0.008 A 
ENDBRANCH   1   3
BRANCH   2   9
ATOM      9  C   UNL     1      35.489   0.178  16.793  0.00  0.00    -0.017 A 
ATOM     10  C   UNL     1      34.916   0.935  17.107  0.00  0.00    +0.008 A 
ATOM     11  C   UNL     1      34.838   1.765  16.555  0.00  0.00    +0.001 A 
ATOM     12  C   UNL     1      35.332   1.838  15.689  0.00  0.00    +0.000 A 
ATOM     13  C   UNL     1      35.904   1.081  15.374  0.00  0.00    +0.001 A 
ATOM     14  C   UNL     1      35.983   0.250  15.926  0.00  0.00    +0.008 A 
ENDBRANCH   2   9
BRANCH   2  15
ATOM     15  C   UNL     1      34.932  -1.411  17.199  0.00  0.00    -0.017 A 
ATOM     16  C   UNL     1      34.097  -1.476  17.746  0.00  0.00    +0.012 A 
ATOM     17  C   UNL     1      33.461  -2.234  17.601  0.00  0.00    +0.046 A 
ATOM     18  C   UNL     1      33.661  -2.928  16.909  0.00  0.00    +0.121 A 
ATOM     19  C   UNL     1      34.496  -2.864  16.362  0.00  0.00    +0.046 A 
ATOM     20  C   UNL     1      35.131  -2.105  16.508  0.00  0.00    +0.012 A 
BRANCH  18  21
ATOM     21  O   UNL     1      33.026  -3.687  16.764  0.00  0.00    -0.491 OA
BRANCH  21  22
ATOM     22  C   UNL     1      33.290  -4.616  17.022  0.00  0.00    +0.244 C 
BRANCH  22  23
ATOM     23  C   UNL     1      32.612  -5.352  17.004  0.00  0.00    +0.124 C 
BRANCH  23  24
ATOM     24  N   UNL     1      32.904  -6.303  17.105  0.00  0.00    -0.305 NA
ATOM     25  C   UNL     1      33.610  -6.542  17.771  0.00  0.00    +0.104 C 
ATOM     26  C   UNL     1      32.489  -7.015  16.538  0.00  0.00    +0.104 C 
ENDBRANCH  23  24
ENDBRANCH  22  23
ENDBRANCH  21  22
ENDBRANCH  18  21
ENDBRANCH   2  15
BRANCH   1  27
ATOM     27  C   UNL     1      36.358  -1.555  18.594  0.00  0.00    +0.146 C 
ATOM     28  C   UNL     1      35.883  -1.618  19.471  0.00  0.00    +0.043 C 
BRANCH  27  29
ATOM     29  O   UNL     1      36.912  -2.321  18.268  0.00  0.00    -0.375 OA
ATOM     30  C   UNL     1      37.261  -2.997  18.917  0.00  0.00    +0.194 C 
ENDBRANCH  27  29
ENDBRANCH   1  27
TORSDOF 9
ENDMDL
MODEL 5
REMARK VINA RESULT:      -7.4      2.319      3.151
REMARK  Name = 129651684
REMARK  13 active torsions:
REMARK  status: ('A' for Active; 'I' for Inactive)
REMARK    1  A    between atoms: O_1  and  C_6
REMARK    2  A    between atoms: O_1  and  C_27
REMARK    3  A    between atoms: O_2  and  C_17
REMARK    4  A    between atoms: O_2  and  C_20
REMARK    5  A    between atoms: N_3  and  C_21
REMARK    6  A    between atoms: N_3  and  C_29
REMARK    7  A    between atoms: N_3  and  C_30
REMARK    8  A    between atoms: C_4  and  C_6
REMARK    9  A    between atoms: C_4  and  C_8
REMARK   10  A    between atoms: C_5  and  C_7
REMARK   11  A    between atoms: C_5  and  C_9
REMARK   12  A    between atoms: C_6  and  C_10
REMARK   13  A    between atoms: C_20  and  C_21
REMARK                            x       y       z     vdW  Elec       q    Type
REMARK                         _______ _______ _______ _____ _____    ______ ____
ROOT
ATOM      1  C   UNL     1      34.698  -2.323  18.632  0.00  0.00    -0.004 C 
ATOM      2  C   UNL     1      34.244  -2.062  17.781  0.00  0.00    -0.005 C 
ENDROOT
BRANCH   1   3
ATOM      3  C   UNL     1      34.285  -3.014  19.227  0.00  0.00    -0.019 A 
ATOM      4  C   UNL     1      34.499  -3.982  19.092  0.00  0.00    +0.008 A 
ATOM      5  C   UNL     1      34.086  -4.672  19.686  0.00  0.00    +0.001 A 
ATOM      6  C   UNL     1      33.461  -4.395  20.415  0.00  0.00    +0.000 A 
ATOM      7  C   UNL     1      33.248  -3.428  20.550  0.00  0.00    +0.001 A 
ATOM      8  C   UNL     1      33.660  -2.737  19.956  0.00  0.00    +0.008 A 
ENDBRANCH   1   3
BRANCH   2   9
ATOM      9  C   UNL     1      33.378  -2.491  17.523  0.00  0.00    -0.017 A 
ATOM     10  C   UNL     1      33.378  -3.330  16.979  0.00  0.00    +0.008 A 
ATOM     11  C   UNL     1      32.513  -3.759  16.721  0.00  0.00    +0.001 A 
ATOM     12  C   UNL     1      31.647  -3.348  17.008  0.00  0.00    +0.000 A 
ATOM     13  C   UNL     1      31.647  -2.510  17.552  0.00  0.00    +0.001 A 
ATOM     14  C   UNL     1      32.512  -2.081  17.809  0.00  0.00    +0.008 A 
ENDBRANCH   2   9
BRANCH   2  15
ATOM     15  C   UNL     1      34.656  -1.371  17.186  0.00  0.00    -0.017 A 
ATOM     16  C   UNL     1      35.243  -1.651  16.427  0.00  0.00    +0.012 A 
ATOM     17  C   UNL     1      35.655  -0.960  15.832  0.00  0.00    +0.046 A 
ATOM     18  C   UNL     1      35.481   0.010  15.998  0.00  0.00    +0.121 A 
ATOM     19  C   UNL     1      34.894   0.290  16.758  0.00  0.00    +0.046 A 
ATOM     20  C   UNL     1      34.482  -0.400  17.352  0.00  0.00    +0.012 A 
BRANCH  18  21
ATOM     21  O   UNL     1      35.893   0.701  15.404  0.00  0.00    -0.491 OA
BRANCH  21  22
ATOM     22  C   UNL     1      35.478   1.607  15.328  0.00  0.00    +0.244 C 
BRANCH  22  23
ATOM     23  C   UNL     1      35.732   2.212  14.574  0.00  0.00    +0.124 C 
BRANCH  23  24
ATOM     24  N   UNL     1      35.498   3.184  14.611  0.00  0.00    -0.305 NA
ATOM     25  C   UNL     1      34.620   3.472  14.993  0.00  0.00    +0.104 C 
ATOM     26  C   UNL     1      36.141   3.867  14.266  0.00  0.00    +0.104 C 
ENDBRANCH  23  24
ENDBRANCH  22  23
ENDBRANCH  21  22
ENDBRANCH  18  21
ENDBRANCH   2  15
BRANCH   1  27
ATOM     27  C   UNL     1      35.563  -1.894  18.890  0.00  0.00    +0.146 C 
ATOM     28  C   UNL     1      35.564  -1.074  19.461  0.00  0.00    +0.043 C 
BRANCH  27  29
ATOM     29  O   UNL     1      36.428  -2.286  18.577  0.00  0.00    -0.375 OA
ATOM     30  C   UNL     1      37.278  -2.072  19.058  0.00  0.00    +0.194 C 
ENDBRANCH  27  29
ENDBRANCH   1  27
TORSDOF 9
ENDMDL
MODEL 6
REMARK VINA RESULT:      -7.4      2.548      4.068
REMARK  Name = 129651684
REMARK  13 active torsions:
REMARK  status: ('A' for Active; 'I' for Inactive)
REMARK    1  A    between atoms: O_1  and  C_6
REMARK    2  A    between atoms: O_1  and  C_27
REMARK    3  A    between atoms: O_2  and  C_17
REMARK    4  A    between atoms: O_2  and  C_20
REMARK    5  A    between atoms: N_3  and  C_21
REMARK    6  A    between atoms: N_3  and  C_29
REMARK    7  A    between atoms: N_3  and  C_30
REMARK    8  A    between atoms: C_4  and  C_6
REMARK    9  A    between atoms: C_4  and  C_8
REMARK   10  A    between atoms: C_5  and  C_7
REMARK   11  A    between atoms: C_5  and  C_9
REMARK   12  A    between atoms: C_6  and  C_10
REMARK   13  A    between atoms: C_20  and  C_21
REMARK                            x       y       z     vdW  Elec       q    Type
REMARK                         _______ _______ _______ _____ _____    ______ ____
ROOT
ATOM      1  C   UNL     1      35.809  -0.951  18.315  0.00  0.00    -0.004 C 
ATOM      2  C   UNL     1      35.243  -0.968  17.491  0.00  0.00    -0.005 C 
ENDROOT
BRANCH   1   3
ATOM      3  C   UNL     1      35.689  -1.651  19.019  0.00  0.00    -0.019 A 
ATOM      4  C   UNL     1      35.025  -1.512  19.754  0.00  0.00    +0.008 A 
ATOM      5  C   UNL     1      34.905  -2.212  20.458  0.00  0.00    +0.001 A 
ATOM      6  C   UNL     1      35.448  -3.051  20.427  0.00  0.00    +0.000 A 
ATOM      7  C   UNL     1      36.112  -3.189  19.692  0.00  0.00    +0.001 A 
ATOM      8  C   UNL     1      36.232  -2.490  18.988  0.00  0.00    +0.008 A 
ENDBRANCH   1   3
BRANCH   2   9
ATOM      9  C   UNL     1      34.556  -1.685  17.371  0.00  0.00    -0.017 A 
ATOM     10  C   UNL     1      34.802  -2.542  16.919  0.00  0.00    +0.008 A 
ATOM     11  C   UNL     1      34.116  -3.259  16.799  0.00  0.00    +0.001 A 
ATOM     12  C   UNL     1      33.183  -3.119  17.131  0.00  0.00    +0.000 A 
ATOM     13  C   UNL     1      32.937  -2.262  17.584  0.00  0.00    +0.001 A 
ATOM     14  C   UNL     1      33.624  -1.545  17.704  0.00  0.00    +0.008 A 
ENDBRANCH   2   9
BRANCH   2  15
ATOM     15  C   UNL     1      35.363  -0.268  16.787  0.00  0.00    -0.017 A 
ATOM     16  C   UNL     1      35.958  -0.445  16.003  0.00  0.00    +0.012 A 
ATOM     17  C   UNL     1      36.078   0.255  15.299  0.00  0.00    +0.046 A 
ATOM     18  C   UNL     1      35.604   1.132  15.379  0.00  0.00    +0.121 A 
ATOM     19  C   UNL     1      35.009   1.309  16.164  0.00  0.00    +0.046 A 
ATOM     20  C   UNL     1      34.889   0.609  16.868  0.00  0.00    +0.012 A 
BRANCH  18  21
ATOM     21  O   UNL     1      35.724   1.832  14.675  0.00  0.00    -0.491 OA
BRANCH  21  22
ATOM     22  C   UNL     1      35.882   2.784  14.938  0.00  0.00    +0.244 C 
BRANCH  22  23
ATOM     23  C   UNL     1      36.089   3.468  14.239  0.00  0.00    +0.124 C 
BRANCH  23  24
ATOM     24  N   UNL     1      36.062   4.441  14.468  0.00  0.00    -0.305 NA
ATOM     25  C   UNL     1      36.836   4.866  14.938  0.00  0.00    +0.104 C 
ATOM     26  C   UNL     1      35.261   4.989  14.228  0.00  0.00    +0.104 C 
ENDBRANCH  23  24
ENDBRANCH  22  23
ENDBRANCH  21  22
ENDBRANCH  18  21
ENDBRANCH   2  15
BRANCH   1  27
ATOM     27  C   UNL     1      36.496  -0.234  18.435  0.00  0.00    +0.146 C 
ATOM     28  C   UNL     1      36.259   0.610  18.917  0.00  0.00    +0.043 C 
BRANCH  27  29
ATOM     29  O   UNL     1      37.419  -0.360  18.074  0.00  0.00    -0.375 OA
ATOM     30  C   UNL     1      38.183   0.156  18.461  0.00  0.00    +0.194 C 
ENDBRANCH  27  29
ENDBRANCH   1  27
TORSDOF 9
ENDMDL
MODEL 7
REMARK VINA RESULT:      -7.4      3.649      6.151
REMARK  Name = 129651684
REMARK  13 active torsions:
REMARK  status: ('A' for Active; 'I' for Inactive)
REMARK    1  A    between atoms: O_1  and  C_6
REMARK    2  A    between atoms: O_1  and  C_27
REMARK    3  A    between atoms: O_2  and  C_17
REMARK    4  A    between atoms: O_2  and  C_20
REMARK    5  A    between atoms: N_3  and  C_21
REMARK    6  A    between atoms: N_3  and  C_29
REMARK    7  A    between atoms: N_3  and  C_30
REMARK    8  A    between atoms: C_4  and  C_6
REMARK    9  A    between atoms: C_4  and  C_8
REMARK   10  A    between atoms: C_5  and  C_7
REMARK   11  A    between atoms: C_5  and  C_9
REMARK   12  A    between atoms: C_6  and  C_10
REMARK   13  A    between atoms: C_20  and  C_21
REMARK                            x       y       z     vdW  Elec       q    Type
REMARK                         _______ _______ _______ _____ _____    ______ ____
ROOT
ATOM      1  C   UNL     1      36.763   1.277  16.339  0.00  0.00    -0.004 C 
ATOM      2  C   UNL     1      37.584   1.446  16.885  0.00  0.00    -0.005 C 
ENDROOT
BRANCH   1   3
ATOM      3  C   UNL     1      36.472   0.339  16.151  0.00  0.00    -0.019 A 
ATOM      4  C   UNL     1      36.801  -0.132  15.333  0.00  0.00    +0.008 A 
ATOM      5  C   UNL     1      36.509  -1.070  15.145  0.00  0.00    +0.001 A 
ATOM      6  C   UNL     1      35.889  -1.537  15.776  0.00  0.00    +0.000 A 
ATOM      7  C   UNL     1      35.560  -1.065  16.594  0.00  0.00    +0.001 A 
ATOM      8  C   UNL     1      35.852  -0.127  16.782  0.00  0.00    +0.008 A 
ENDBRANCH   1   3
BRANCH   2   9
ATOM      9  C   UNL     1      38.113   0.677  17.243  0.00  0.00    -0.017 A 
ATOM     10  C   UNL     1      37.891   0.291  18.138  0.00  0.00    +0.008 A 
ATOM     11  C   UNL     1      38.420  -0.478  18.497  0.00  0.00    +0.001 A 
ATOM     12  C   UNL     1      39.172  -0.862  17.959  0.00  0.00    +0.000 A 
ATOM     13  C   UNL     1      39.394  -0.476  17.064  0.00  0.00    +0.001 A 
ATOM     14  C   UNL     1      38.865   0.294  16.706  0.00  0.00    +0.008 A 
ENDBRANCH   2   9
BRANCH   2  15
ATOM     15  C   UNL     1      37.875   2.384  17.073  0.00  0.00    -0.017 A 
ATOM     16  C   UNL     1      38.384   2.898  16.381  0.00  0.00    +0.012 A 
ATOM     17  C   UNL     1      38.675   3.836  16.569  0.00  0.00    +0.046 A 
ATOM     18  C   UNL     1      38.458   4.260  17.448  0.00  0.00    +0.121 A 
ATOM     19  C   UNL     1      37.950   3.746  18.140  0.00  0.00    +0.046 A 
ATOM     20  C   UNL     1      37.659   2.808  17.952  0.00  0.00    +0.012 A 
BRANCH  18  21
ATOM     21  O   UNL     1      38.750   5.198  17.636  0.00  0.00    -0.491 OA
BRANCH  21  22
ATOM     22  C   UNL     1      39.143   5.431  18.525  0.00  0.00    +0.244 C 
BRANCH  22  23
ATOM     23  C   UNL     1      39.573   6.323  18.664  0.00  0.00    +0.124 C 
BRANCH  23  24
ATOM     24  N   UNL     1      39.862   6.602  19.580  0.00  0.00    -0.305 NA
ATOM     25  C   UNL     1      39.286   7.216  20.120  0.00  0.00    +0.104 C 
ATOM     26  C   UNL     1      40.726   6.268  19.955  0.00  0.00    +0.104 C 
ENDBRANCH  23  24
ENDBRANCH  22  23
ENDBRANCH  21  22
ENDBRANCH  18  21
ENDBRANCH   2  15
BRANCH   1  27
ATOM     27  C   UNL     1      36.234   2.046  15.981  0.00  0.00    +0.146 C 
ATOM     28  C   UNL     1      36.439   2.415  15.074  0.00  0.00    +0.043 C 
BRANCH  27  29
ATOM     29  O   UNL     1      35.500   2.447  16.529  0.00  0.00    -0.375 OA
ATOM     30  C   UNL     1      34.745   2.926  16.081  0.00  0.00    +0.194 C 
ENDBRANCH  27  29
ENDBRANCH   1  27
TORSDOF 9
ENDMDL
MODEL 8
REMARK VINA RESULT:      -7.4      2.710      5.683
REMARK  Name = 129651684
REMARK  13 active torsions:
REMARK  status: ('A' for Active; 'I' for Inactive)
REMARK    1  A    between atoms: O_1  and  C_6
REMARK    2  A    between atoms: O_1  and  C_27
REMARK    3  A    between atoms: O_2  and  C_17
REMARK    4  A    between atoms: O_2  and  C_20
REMARK    5  A    between atoms: N_3  and  C_21
REMARK    6  A    between atoms: N_3  and  C_29
REMARK    7  A    between atoms: N_3  and  C_30
REMARK    8  A    between atoms: C_4  and  C_6
REMARK    9  A    between atoms: C_4  and  C_8
REMARK   10  A    between atoms: C_5  and  C_7
REMARK   11  A    between atoms: C_5  and  C_9
REMARK   12  A    between atoms: C_6  and  C_10
REMARK   13  A    between atoms: C_20  and  C_21
REMARK                            x       y       z     vdW  Elec       q    Type
REMARK                         _______ _______ _______ _____ _____    ______ ____
ROOT
ATOM      1  C   UNL     1      35.608  -0.805  17.598  0.00  0.00    -0.004 C 
ATOM      2  C   UNL     1      36.265  -0.780  18.351  0.00  0.00    -0.005 C 
ENDROOT
BRANCH   1   3
ATOM      3  C   UNL     1      35.574  -0.054  16.939  0.00  0.00    -0.019 A 
ATOM      4  C   UNL     1      36.133  -0.091  16.110  0.00  0.00    +0.008 A 
ATOM      5  C   UNL     1      36.099   0.660  15.451  0.00  0.00    +0.001 A 
ATOM      6  C   UNL     1      35.506   1.447  15.619  0.00  0.00    +0.000 A 
ATOM      7  C   UNL     1      34.946   1.484  16.447  0.00  0.00    +0.001 A 
ATOM      8  C   UNL     1      34.980   0.733  17.107  0.00  0.00    +0.008 A 
ENDBRANCH   1   3
BRANCH   2   9
ATOM      9  C   UNL     1      36.889  -0.004  18.444  0.00  0.00    -0.017 A 
ATOM     10  C   UNL     1      36.626   0.785  19.000  0.00  0.00    +0.008 A 
ATOM     11  C   UNL     1      37.250   1.561  19.093  0.00  0.00    +0.001 A 
ATOM     12  C   UNL     1      38.136   1.549  18.631  0.00  0.00    +0.000 A 
ATOM     13  C   UNL     1      38.399   0.760  18.075  0.00  0.00    +0.001 A 
ATOM     14  C   UNL     1      37.776  -0.016  17.982  0.00  0.00    +0.008 A 
ENDBRANCH   2   9
BRANCH   2  15
ATOM     15  C   UNL     1      36.299  -1.530  19.011  0.00  0.00    -0.017 A 
ATOM     16  C   UNL     1      35.659  -1.551  19.779  0.00  0.00    +0.012 A 
ATOM     17  C   UNL     1      35.693  -2.302  20.438  0.00  0.00    +0.046 A 
ATOM     18  C   UNL     1      36.367  -3.032  20.330  0.00  0.00    +0.121 A 
ATOM     19  C   UNL     1      37.008  -3.012  19.562  0.00  0.00    +0.046 A 
ATOM     20  C   UNL     1      36.974  -2.261  18.903  0.00  0.00    +0.012 A 
BRANCH  18  21
ATOM     21  O   UNL     1      36.401  -3.783  20.990  0.00  0.00    -0.491 OA
BRANCH  21  22
ATOM     22  C   UNL     1      36.319  -4.729  20.676  0.00  0.00    +0.244 C 
BRANCH  22  23
ATOM     23  C   UNL     1      36.237  -5.471  21.341  0.00  0.00    +0.124 C 
BRANCH  23  24
ATOM     24  N   UNL     1      36.418  -6.414  21.062  0.00  0.00    -0.305 NA
ATOM     25  C   UNL     1      35.955  -6.797  20.262  0.00  0.00    +0.104 C 
ATOM     26  C   UNL     1      37.062  -6.975  21.583  0.00  0.00    +0.104 C 
ENDBRANCH  23  24
ENDBRANCH  22  23
ENDBRANCH  21  22
ENDBRANCH  18  21
ENDBRANCH   2  15
BRANCH   1  27
ATOM     27  C   UNL     1      34.984  -1.581  17.505  0.00  0.00    +0.146 C 
ATOM     28  C   UNL     1      34.074  -1.544  17.919  0.00  0.00    +0.043 C 
BRANCH  27  29
ATOM     29  O   UNL     1      35.270  -2.394  16.998  0.00  0.00    -0.375 OA
ATOM     30  C   UNL     1      34.583  -3.007  16.607  0.00  0.00    +0.194 C 
ENDBRANCH  27  29
ENDBRANCH   1  27
TORSDOF 9
ENDMDL
MODEL 9
REMARK VINA RESULT:      -7.3      2.659      6.464
REMARK  Name = 129651684
REMARK  13 active torsions:
REMARK  status: ('A' for Active; 'I' for Inactive)
REMARK    1  A    between atoms: O_1  and  C_6
REMARK    2  A    between atoms: O_1  and  C_27
REMARK    3  A    between atoms: O_2  and  C_17
REMARK    4  A    between atoms: O_2  and  C_20
REMARK    5  A    between atoms: N_3  and  C_21
REMARK    6  A    between atoms: N_3  and  C_29
REMARK    7  A    between atoms: N_3  and  C_30
REMARK    8  A    between atoms: C_4  and  C_6
REMARK    9  A    between atoms: C_4  and  C_8
REMARK   10  A    between atoms: C_5  and  C_7
REMARK   11  A    between atoms: C_5  and  C_9
REMARK   12  A    between atoms: C_6  and  C_10
REMARK   13  A    between atoms: C_20  and  C_21
REMARK                            x       y       z     vdW  Elec       q    Type
REMARK                         _______ _______ _______ _____ _____    ______ ____
ROOT
ATOM      1  C   UNL     1      36.948   0.909  16.975  0.00  0.00    -0.004 C 
ATOM      2  C   UNL     1      36.059   0.735  16.550  0.00  0.00    -0.005 C 
ENDROOT
BRANCH   1   3
ATOM      3  C   UNL     1      37.404   1.788  16.836  0.00  0.00    -0.019 A 
ATOM      4  C   UNL     1      38.019   1.915  16.058  0.00  0.00    +0.008 A 
ATOM      5  C   UNL     1      38.475   2.794  15.919  0.00  0.00    +0.001 A 
ATOM      6  C   UNL     1      38.317   3.546  16.559  0.00  0.00    +0.000 A 
ATOM      7  C   UNL     1      37.702   3.419  17.337  0.00  0.00    +0.001 A 
ATOM      8  C   UNL     1      37.246   2.540  17.476  0.00  0.00    +0.008 A 
ENDBRANCH   1   3
BRANCH   2   9
ATOM      9  C   UNL     1      35.627   1.439  15.987  0.00  0.00    -0.017 A 
ATOM     10  C   UNL     1      35.809   1.474  15.005  0.00  0.00    +0.008 A 
ATOM     11  C   UNL     1      35.377   2.179  14.441  0.00  0.00    +0.001 A 
ATOM     12  C   UNL     1      34.763   2.848  14.861  0.00  0.00    +0.000 A 
ATOM     13  C   UNL     1      34.582   2.812  15.843  0.00  0.00    +0.001 A 
ATOM     14  C   UNL     1      35.014   2.108  16.407  0.00  0.00    +0.008 A 
ENDBRANCH   2   9
BRANCH   2  15
ATOM     15  C   UNL     1      35.603  -0.144  16.689  0.00  0.00    -0.017 A 
ATOM     16  C   UNL     1      35.003  -0.277  17.478  0.00  0.00    +0.012 A 
ATOM     17  C   UNL     1      34.547  -1.156  17.617  0.00  0.00    +0.046 A 
ATOM     18  C   UNL     1      34.690  -1.902  16.966  0.00  0.00    +0.121 A 
ATOM     19  C   UNL     1      35.290  -1.769  16.178  0.00  0.00    +0.046 A 
ATOM     20  C   UNL     1      35.747  -0.890  16.039  0.00  0.00    +0.012 A 
BRANCH  18  21
ATOM     21  O   UNL     1      34.234  -2.781  17.105  0.00  0.00    -0.491 OA
BRANCH  21  22
ATOM     22  C   UNL     1      33.239  -2.846  17.027  0.00  0.00    +0.244 C 
BRANCH  22  23
ATOM     23  C   UNL     1      32.780  -3.719  17.192  0.00  0.00    +0.124 C 
BRANCH  23  24
ATOM     24  N   UNL     1      31.789  -3.791  17.083  0.00  0.00    -0.305 NA
ATOM     25  C   UNL     1      31.405  -4.374  16.367  0.00  0.00    +0.104 C 
ATOM     26  C   UNL     1      31.181  -3.280  17.691  0.00  0.00    +0.104 C 
ENDBRANCH  23  24
ENDBRANCH  22  23
ENDBRANCH  21  22
ENDBRANCH  18  21
ENDBRANCH   2  15
BRANCH   1  27
ATOM     27  C   UNL     1      37.380   0.205  17.538  0.00  0.00    +0.146 C 
ATOM     28  C   UNL     1      37.220   0.186  18.525  0.00  0.00    +0.043 C 
BRANCH  27  29
ATOM     29  O   UNL     1      37.972  -0.481  17.114  0.00  0.00    -0.375 OA
ATOM     30  C   UNL     1      38.655  -0.961  17.665  0.00  0.00    +0.194 C 
ENDBRANCH  27  29
ENDBRANCH   1  27
TORSDOF 9
ENDMDL
MODEL 10
REMARK VINA RESULT:      -7.3      3.002      4.813
REMARK  Name = 129651684
REMARK  13 active torsions:
REMARK  status: ('A' for Active; 'I' for Inactive)
REMARK    1  A    between atoms: O_1  and  C_6
REMARK    2  A    between atoms: O_1  and  C_27
REMARK    3  A    between atoms: O_2  and  C_17
REMARK    4  A    between atoms: O_2  and  C_20
REMARK    5  A    between atoms: N_3  and  C_21
REMARK    6  A    between atoms: N_3  and  C_29
REMARK    7  A    between atoms: N_3  and  C_30
REMARK    8  A    between atoms: C_4  and  C_6
REMARK    9  A    between atoms: C_4  and  C_8
REMARK   10  A    between atoms: C_5  and  C_7
REMARK   11  A    between atoms: C_5  and  C_9
REMARK   12  A    between atoms: C_6  and  C_10
REMARK   13  A    between atoms: C_20  and  C_21
REMARK                            x       y       z     vdW  Elec       q    Type
REMARK                         _______ _______ _______ _____ _____    ______ ____
ROOT
ATOM      1  C   UNL     1      36.533  -0.175  17.615  0.00  0.00    -0.004 C 
ATOM      2  C   UNL     1      35.711  -0.175  17.045  0.00  0.00    -0.005 C 
ENDROOT
BRANCH   1   3
ATOM      3  C   UNL     1      36.760  -0.979  18.165  0.00  0.00    -0.019 A 
ATOM      4  C   UNL     1      36.399  -1.068  19.093  0.00  0.00    +0.008 A 
ATOM      5  C   UNL     1      36.627  -1.872  19.643  0.00  0.00    +0.001 A 
ATOM      6  C   UNL     1      37.215  -2.587  19.264  0.00  0.00    +0.000 A 
ATOM      7  C   UNL     1      37.575  -2.498  18.336  0.00  0.00    +0.001 A 
ATOM      8  C   UNL     1      37.348  -1.694  17.786  0.00  0.00    +0.008 A 
ENDBRANCH   1   3
BRANCH   2   9
ATOM      9  C   UNL     1      35.117  -0.979  17.024  0.00  0.00    -0.017 A 
ATOM     10  C   UNL     1      34.347  -1.048  17.659  0.00  0.00    +0.008 A 
ATOM     11  C   UNL     1      33.753  -1.852  17.639  0.00  0.00    +0.001 A 
ATOM     12  C   UNL     1      33.928  -2.587  16.984  0.00  0.00    +0.000 A 
ATOM     13  C   UNL     1      34.698  -2.518  16.349  0.00  0.00    +0.001 A 
ATOM     14  C   UNL     1      35.292  -1.714  16.369  0.00  0.00    +0.008 A 
ENDBRANCH   2   9
BRANCH   2  15
ATOM     15  C   UNL     1      35.484   0.629  16.495  0.00  0.00    -0.017 A 
ATOM     16  C   UNL     1      35.880   0.739  15.583  0.00  0.00    +0.012 A 
ATOM     17  C   UNL     1      35.652   1.543  15.034  0.00  0.00    +0.046 A 
ATOM     18  C   UNL     1      35.029   2.236  15.396  0.00  0.00    +0.121 A 
ATOM     19  C   UNL     1      34.633   2.126  16.307  0.00  0.00    +0.046 A 
ATOM     20  C   UNL     1      34.861   1.322  16.857  0.00  0.00    +0.012 A 
BRANCH  18  21
ATOM     21  O   UNL     1      34.802   3.040  14.846  0.00  0.00    -0.491 OA
BRANCH  21  22
ATOM     22  C   UNL     1      35.509   3.712  14.626  0.00  0.00    +0.244 C 
BRANCH  22  23
ATOM     23  C   UNL     1      35.251   4.634  14.339  0.00  0.00    +0.124 C 
BRANCH  23  24
ATOM     24  N   UNL     1      35.925   5.229  13.901  0.00  0.00    -0.305 NA
ATOM     25  C   UNL     1      35.910   5.358  12.910  0.00  0.00    +0.104 C 
ATOM     26  C   UNL     1      36.615   5.694  14.456  0.00  0.00    +0.104 C 
ENDBRANCH  23  24
ENDBRANCH  22  23
ENDBRANCH  21  22
ENDBRANCH  18  21
ENDBRANCH   2  15
BRANCH   1  27
ATOM     27  C   UNL     1      37.127   0.629  17.635  0.00  0.00    +0.146 C 
ATOM     28  C   UNL     1      37.864   0.722  16.966  0.00  0.00    +0.043 C 
BRANCH  27  29
ATOM     29  O   UNL     1      36.984   1.339  18.324  0.00  0.00    -0.375 OA
ATOM     30  C   UNL     1      37.730   1.959  18.565  0.00  0.00    +0.194 C 
ENDBRANCH  27  29
ENDBRANCH   1  27
TORSDOF 9
ENDMDL
